                                  MODFLOW-NWT-SWR1 
      U.S. GEOLOGICAL SURVEY MODULAR FINITE-DIFFERENCE GROUNDWATER-FLOW MODEL
                            VERSION 1.1.3, 8/01/2017
                    BASED ON MODFLOW-2005 VERSION 1.11.00 08/08/2013

 LIST FILE: .\SFR_LAK_floodplain\output\SFR_LAK_floodplain.lst
                         UNIT    9

 OPENING .\SFR_LAK_floodplain\input\SFR_LAK_floodplain.ba6
 FILE TYPE:BAS6   UNIT   75   STATUS:OLD    
 FORMAT:FORMATTED              ACCESS:SEQUENTIAL          

 OPENING .\SFR_LAK_floodplain\input\SFR_LAK_floodplain.upw
 FILE TYPE:UPW   UNIT    7   STATUS:OLD    
 FORMAT:FORMATTED              ACCESS:SEQUENTIAL          

 OPENING .\SFR_LAK_floodplain\input\SFR_LAK_floodplain.dis
 FILE TYPE:DIS   UNIT    8   STATUS:OLD    
 FORMAT:FORMATTED              ACCESS:SEQUENTIAL          

 OPENING .\SFR_LAK_floodplain\input\SFR_LAK_floodplain.nwt
 FILE TYPE:NWT   UNIT   13   STATUS:OLD    
 FORMAT:FORMATTED              ACCESS:SEQUENTIAL          

 OPENING .\SFR_LAK_floodplain\input\SFR_LAK_floodplain.oc
 FILE TYPE:OC   UNIT   14   STATUS:OLD    
 FORMAT:FORMATTED              ACCESS:SEQUENTIAL          

 OPENING .\SFR_LAK_floodplain\input\SFR_LAK_floodplain.sfr
 FILE TYPE:SFR   UNIT   15   STATUS:OLD    
 FORMAT:FORMATTED              ACCESS:SEQUENTIAL          

 OPENING .\SFR_LAK_floodplain\input\SFR_LAK_floodplain.wel
 FILE TYPE:WEL   UNIT   16   STATUS:OLD    
 FORMAT:FORMATTED              ACCESS:SEQUENTIAL          

 OPENING .\SFR_LAK_floodplain\input\SFR_LAK_floodplain.ghb
 FILE TYPE:GHB   UNIT   17   STATUS:OLD    
 FORMAT:FORMATTED              ACCESS:SEQUENTIAL          

 OPENING .\SFR_LAK_floodplain\input\SFR_LAK_floodplain.uzf
 FILE TYPE:UZF   UNIT   19   STATUS:OLD    
 FORMAT:FORMATTED              ACCESS:SEQUENTIAL          

 OPENING .\SFR_LAK_floodplain\input\SFR_LAK_floodplain.gag
 FILE TYPE:GAGE   UNIT   32   STATUS:OLD    
 FORMAT:FORMATTED              ACCESS:SEQUENTIAL          

 OPENING .\SFR_LAK_floodplain\input\SFR_LAK_floodplain.lak
 FILE TYPE:LAK   UNIT   33   STATUS:OLD    
 FORMAT:FORMATTED              ACCESS:SEQUENTIAL          

 OPENING .\SFR_LAK_floodplain\input\SFR_LAK_floodplain.tab
 FILE TYPE:DATA   UNIT   55   STATUS:UNKNOWN
 FORMAT:FORMATTED              ACCESS:SEQUENTIAL          

 OPENING .\SFR_LAK_floodplain\input\SFR_LAK_floodplain_bath.txt
 FILE TYPE:DATA   UNIT   57   STATUS:UNKNOWN
 FORMAT:FORMATTED              ACCESS:SEQUENTIAL          

 OPENING .\SFR_LAK_floodplain\output\SFR_LAK_floodplainhd.out
 FILE TYPE:DATA   UNIT   58   STATUS:UNKNOWN
 FORMAT:FORMATTED              ACCESS:SEQUENTIAL          

 OPENING .\SFR_LAK_floodplain\output\SFR_LAK_floodplain.uzfot
 FILE TYPE:DATA(BINARY)   UNIT   61   STATUS:UNKNOWN
 FORMAT:BINARY                 ACCESS:SEQUENTIAL          

 OPENING .\SFR_LAK_floodplain\output\SFR_LAK_floodplain.uzf1
 FILE TYPE:DATA   UNIT   65   STATUS:UNKNOWN
 FORMAT:FORMATTED              ACCESS:SEQUENTIAL          

 OPENING .\SFR_LAK_floodplain\output\SFR_LAK_floodplain.uzf2
 FILE TYPE:DATA   UNIT   66   STATUS:UNKNOWN
 FORMAT:FORMATTED              ACCESS:SEQUENTIAL          

 OPENING .\SFR_LAK_floodplain\output\SFR_LAK_floodplain.uzf3
 FILE TYPE:DATA   UNIT   67   STATUS:UNKNOWN
 FORMAT:FORMATTED              ACCESS:SEQUENTIAL          

 OPENING .\SFR_LAK_floodplain\output\SFR_LAK_floodplain.uzf4
 FILE TYPE:DATA   UNIT   68   STATUS:UNKNOWN
 FORMAT:FORMATTED              ACCESS:SEQUENTIAL          

 OPENING .\SFR_LAK_floodplain\output\SFR_LAK_floodplain.flw
 FILE TYPE:DATA   UNIT   81   STATUS:UNKNOWN
 FORMAT:FORMATTED              ACCESS:SEQUENTIAL          

 OPENING .\SFR_LAK_floodplain\output\SFR_LAK_floodplain.sg1
 FILE TYPE:DATA   UNIT   83   STATUS:UNKNOWN
 FORMAT:FORMATTED              ACCESS:SEQUENTIAL          

 OPENING .\SFR_LAK_floodplain\output\SFR_LAK_floodplain.sg2
 FILE TYPE:DATA   UNIT   84   STATUS:UNKNOWN
 FORMAT:FORMATTED              ACCESS:SEQUENTIAL          

 OPENING .\SFR_LAK_floodplain\output\SFR_LAK_floodplain.lg1
 FILE TYPE:DATA   UNIT  801   STATUS:UNKNOWN
 FORMAT:FORMATTED              ACCESS:SEQUENTIAL          

 BAS -- BASIC PACKAGE, VERSION 1.1.3, 8/01/2017 INPUT READ FROM UNIT   75
 
 MODFLOW was compiled using mixed precision
 Precision of REAL variables:           6
 Precision of DOUBLE PRECISION variables:          15

 DISCRETIZATION INPUT DATA READ FROM UNIT    8
 #Test problem 2-- Discretization input
 #Example problem using the UZF1 Package
    2 LAYERS        15 ROWS        10 COLUMNS
   12 STRESS PERIOD(S) IN SIMULATION
 MODEL TIME UNIT IS SECONDS
 MODEL LENGTH UNIT IS FEET
  Confining bed flag for each layer:
   0   0

                     DELR =   5000.00    

                     DELC =   5000.00    



           TOP ELEVATION OF LAYER 1
 READING ON UNIT    8 WITH FORMAT: (10F7.0)            

            1           2           3           4           5           6           7           8           9          10
 ........................................................................................................................
   1    1105.       1105.       0.000       0.000       0.000       0.000       0.000       0.000       0.000       0.000    
   2    1105.       1095.       1105.       0.000       0.000       1100.       1100.       1110.       0.000       0.000    
   3    0.000       1100.       1085.       1080.       1078.       1076.       1073.       1090.       0.000       0.000    
   4    1110.       1100.       1090.       1085.       1074.       1080.       1080.       1070.       1100.       0.000    
   5    1110.       1100.       1085.       1080.       1076.       1074.       1077.       1066.       1075.       1080.    
   6    1105.       1095.       1080.       1077.       1073.       1069.       1070.       1063.       1085.       1095.    
   7    1105.       1090.       1075.       1072.       1070.       1065.       1065.       1069.       1090.       0.000    
   8    0.000       1080.       1070.       1068.       1063.       1060.       1063.       1067.       1090.       0.000    
   9    0.000       1075.       1065.       1062.       1058.       1052.       1055.       1065.       1090.       0.000    
  10    0.000       1070.       1060.       1055.       1046.       1046.       1044.       1060.       1088.       1100.    
  11    0.000       1055.       1050.       1045.       1041.       1042.       1040.       1050.       1075.       0.000    
  12    1027.       1028.       1028.       1032.       1032.       1033.       1032.       1040.       1060.       0.000    
  13    997.0       1004.       1008.       1014.       1020.       1027.       1032.       1038.       1050.       0.000    
  14    0.000       1030.       1040.       1045.       1050.       1050.       1050.       1050.       1044.       0.000    
  15    0.000       0.000       1080.       1080.       1080.       1080.       0.000       0.000       0.000       0.000    



             MODEL LAYER BOTTOM EL. FOR LAYER   1
 READING ON UNIT    8 WITH FORMAT: (10F7.0)            

            1           2           3           4           5           6           7           8           9          10
 ........................................................................................................................
   1    1105.       1105.       0.000       0.000       0.000       0.000       0.000       0.000       0.000       0.000    
   2    1105.       1095.       1105.       0.000       0.000       1100.       1100.       1110.       0.000       0.000    
   3    0.000       1100.       1085.       1080.       1078.       1076.       1073.       1090.       0.000       0.000    
   4    1110.       1100.       1090.       1085.       1074.       1080.       1080.       1070.       1100.       0.000    
   5    1110.       1100.       1085.       1080.       1076.       1074.       1077.       1066.       1075.       1080.    
   6    1105.       1095.       1080.       1077.       1073.       1069.       1070.       1063.       1085.       1095.    
   7    1105.       1090.       1075.       1072.       1070.       1065.       1065.       1069.       1090.       0.000    
   8    0.000       1080.       1070.       1068.       1063.       1060.       1063.       1067.       1090.       0.000    
   9    0.000       1075.       1065.       1062.       1058.       1052.       1055.       1065.       1090.       0.000    
  10    0.000       1070.       1060.       1055.       1046.       1046.       1044.       1060.       1088.       1100.    
  11    0.000       1055.       1050.       1045.       1041.       1042.       1040.       1050.       1075.       0.000    
  12    1027.       1028.       1028.       1032.       1032.       1033.       1032.       1040.       1060.       0.000    
  13    997.0       1004.       1008.       1014.       1020.       1027.       1032.       1038.       1050.       0.000    
  14    0.000       1030.       1040.       1045.       1050.       1050.       1050.       1050.       1044.       0.000    
  15    0.000       0.000       1080.       1080.       1080.       1080.       0.000       0.000       0.000       0.000    



             MODEL LAYER BOTTOM EL. FOR LAYER   2
 READING ON UNIT    8 WITH FORMAT: (10F7.0)            

            1           2           3           4           5           6           7           8           9          10
 ........................................................................................................................
   1    1000.       1000.       0.000       0.000       0.000       0.000       0.000       0.000       0.000       0.000    
   2    1000.       900.0       900.0       0.000       0.000       950.0       950.0       950.0       0.000       0.000    
   3    0.000       850.0       670.0       680.0       680.0       770.0       770.0       890.0       0.000       0.000    
   4    925.0       850.0       650.0       650.0       650.0       680.0       740.0       850.0       950.0       0.000    
   5    925.0       800.0       650.0       600.0       600.0       600.0       650.0       720.0       850.0       950.0    
   6    925.0       800.0       650.0       600.0       550.0       600.0       650.0       720.0       850.0       970.0    
   7    925.0       800.0       650.0       600.0       550.0       600.0       650.0       720.0       950.0       0.000    
   8    0.000       850.0       700.0       650.0       570.0       600.0       700.0       850.0       950.0       0.000    
   9    0.000       850.0       700.0       650.0       540.0       580.0       700.0       850.0       950.0       0.000    
  10    0.000       850.0       700.0       630.0       530.0       580.0       650.0       800.0       900.0       950.0    
  11    0.000       850.0       700.0       620.0       580.0       620.0       700.0       800.0       900.0       0.000    
  12    900.0       830.0       710.0       640.0       600.0       650.0       700.0       800.0       900.0       0.000    
  13    900.0       810.0       750.0       700.0       650.0       700.0       750.0       800.0       900.0       0.000    
  14    0.000       950.0       850.0       850.0       850.0       850.0       850.0       850.0       850.0       0.000    
  15    0.000       0.000       950.0       950.0       950.0       950.0       0.000       0.000       0.000       0.000    


 STRESS PERIOD     LENGTH       TIME STEPS     MULTIPLIER FOR DELT    SS FLAG
 ----------------------------------------------------------------------------
        1         2628000.          1                    1.000         SS
        2         2628000.         15                    1.000         TR
        3         2628000.         15                    1.000         TR
        4         2628000.         15                    1.000         TR
        5         2628000.         15                    1.000         TR
        6         2628000.         15                    1.000         TR
        7         2628000.         15                    1.000         TR
        8         2628000.         15                    1.000         TR
        9         2628000.         15                    1.000         TR
       10         2628000.         15                    1.000         TR
       11         2628000.         15                    1.000         TR
       12        2.1024000E+07    120                    1.000         TR

 COMBINED STEADY-STATE AND TRANSIENT SIMULATION



 
 #Test Simulation 2-- Example problem using the UZF1 Package                     
 #Modified from example Problem 1 of SFR1 documentation report                   
 THE FREE FORMAT OPTION HAS BEEN SELECTED



                     BOUNDARY ARRAY FOR LAYER   1
 READING ON UNIT   75 WITH FORMAT: (20I4)              

                1           2           3           4           5           6           7           8           9          10
 ............................................................................................................................
   1            0           0           0           0           0           0           0           0           0           0
   2            0           0           0           0           0           0           0           0           0           0
   3            0           0           0           0           0           0           0           0           0           0
   4            0           0           0           0           0           0           0           0           0           0
   5            0           0           0           0           0           0           0           0           0           0
   6            0           0           0           0           0           0           0           0           0           0
   7            0           0           0           0           0           0           0           0           0           0
   8            0           0           0           0           0           0           0           0           0           0
   9            0           0           0           0           0           0           0           0           0           0
  10            0           0           0           0           0           0           0           0           0           0
  11            0           0           0           0           0           0           0           0           0           0
  12            0           0           0           0           0           0           0           0           0           0
  13            0           0           0           0           0           0           0           0           0           0
  14            0           0           0           0           0           0           0           0           0           0
  15            0           0           0           0           0           0           0           0           0           0



                     BOUNDARY ARRAY FOR LAYER   2
 READING ON UNIT   75 WITH FORMAT: (20I4)              

                1           2           3           4           5           6           7           8           9          10
 ............................................................................................................................
   1            1           1           0           0           0           0           0           0           0           0
   2            1           1           1           0           0           1           1           1           0           0
   3            0           1           1           1           1           1           1           1           0           0
   4            1           1           1           1           1           1           1           1           1           0
   5            1           1           1           1           1           1           1           1           1           1
   6            1           1           1           1           1           1           1           1           1           1
   7            1           1           1           1           1           1           1           1           1           0
   8            0           1           1           1           1           1           1           1           1           0
   9            0           1           1           1           1           1           1           1           1           0
  10            0           1           1           1           1           1           1           1           1           1
  11            0           1           1           1           1           1           1           1           1           0
  12            1           1           1           1           1           1           1           1           1           0
  13            1           1           1           1           1           1           1           1           1           0
  14            0           1           1           1           1           1           1           1           1           0
  15            0           0           1           1           1           1           0           0           0           0

 AQUIFER HEAD WILL BE SET TO   6999.0     AT ALL NO-FLOW NODES (IBOUND=0).



                       INITIAL HEAD FOR LAYER   1
 READING ON UNIT   75 WITH FORMAT: (10F10.3)           

            1           2           3           4           5           6           7           8           9          10
 ........................................................................................................................
   1    1092.       1089.       6999.       6999.       6999.       6999.       6999.       6999.       6999.       6999.    
   2    1089.       1084.       1079.       6999.       6999.       1072.       1071.       1071.       6999.       6999.    
   3    6999.       1076.       1071.       1067.       1066.       1067.       1067.       1068.       6999.       6999.    
   4    1067.       1068.       1065.       1061.       1059.       1059.       1060.       1063.       1064.       6999.    
   5    1063.       1060.       1057.       1055.       1055.       1055.       1056.       1058.       1062.       1065.    
   6    1059.       1055.       1051.       1050.       1050.       1051.       1053.       1055.       1059.       1064.    
   7    1056.       1049.       1045.       1044.       1045.       1047.       1049.       1052.       1055.       6999.    
   8    6999.       1043.       1040.       1039.       1040.       1042.       1044.       1048.       1050.       6999.    
   9    6999.       1035.       1034.       1034.       1035.       1037.       1038.       1041.       1045.       6999.    
  10    6999.       1028.       1028.       1029.       1030.       1032.       1034.       1036.       1041.       1046.    
  11    6999.       1020.       1021.       1024.       1026.       1029.       1031.       1033.       1037.       6999.    
  12    1003.       1010.       1014.       1019.       1023.       1026.       1029.       1032.       1036.       6999.    
  13    996.5       1001.       1009.       1014.       1020.       1025.       1029.       1034.       1037.       6999.    
  14    6999.       1008.       1011.       1016.       1021.       1026.       1030.       1035.       1039.       6999.    
  15    6999.       6999.       1021.       1023.       1027.       1029.       6999.       6999.       6999.       6999.    



                       INITIAL HEAD FOR LAYER   2
 READING ON UNIT   75 WITH FORMAT: (10F10.3)           

            1           2           3           4           5           6           7           8           9          10
 ........................................................................................................................
   1    1092.       1089.       6999.       6999.       6999.       6999.       6999.       6999.       6999.       6999.    
   2    1089.       1084.       1079.       6999.       6999.       1072.       1071.       1071.       6999.       6999.    
   3    6999.       1076.       1071.       1067.       1066.       1067.       1067.       1068.       6999.       6999.    
   4    1067.       1068.       1065.       1061.       1059.       1059.       1060.       1063.       1064.       6999.    
   5    1063.       1060.       1057.       1055.       1055.       1055.       1056.       1058.       1062.       1065.    
   6    1059.       1055.       1051.       1050.       1050.       1051.       1053.       1055.       1059.       1064.    
   7    1056.       1049.       1045.       1044.       1045.       1047.       1049.       1052.       1055.       6999.    
   8    6999.       1043.       1040.       1039.       1040.       1042.       1044.       1048.       1050.       6999.    
   9    6999.       1035.       1034.       1034.       1035.       1037.       1038.       1041.       1045.       6999.    
  10    6999.       1028.       1028.       1029.       1030.       1032.       1034.       1036.       1041.       1046.    
  11    6999.       1020.       1021.       1024.       1026.       1029.       1031.       1033.       1037.       6999.    
  12    1003.       1010.       1014.       1019.       1023.       1026.       1029.       1032.       1036.       6999.    
  13    996.5       1001.       1009.       1014.       1020.       1025.       1029.       1034.       1037.       6999.    
  14    6999.       1008.       1011.       1016.       1021.       1026.       1030.       1035.       1039.       6999.    
  15    6999.       6999.       1021.       1023.       1027.       1029.       6999.       6999.       6999.       6999.    

 OUTPUT CONTROL IS SPECIFIED ONLY AT TIME STEPS FOR WHICH OUTPUT IS DESIRED
 HEADS WILL BE SAVED WITH FORMAT: (10F10.3)           
 SAVED HEADS WILL BE LABELED
 HEAD PRINT FORMAT CODE IS   4    DRAWDOWN PRINT FORMAT CODE IS   0
 HEADS WILL BE SAVED ON UNIT   58    DRAWDOWNS WILL BE SAVED ON UNIT    0
 # MODFLOW-NWT

 NWT1 -- Newton Solver, VERSION 1.1.3, 8/01/2017
         INPUT READ FROM UNIT 13

 SPECIFIED OPTION:
 SOLVER INPUT VALUES ARE SPECIFIED BY USER
 ***XMD linear solver will be used***
 
   CONVERGENCE CRITERION OF   0.100000E-02 FOR HEAD SOLUTION
   AND A TOLERANCE OF   0.100000E+01 FOR FLOW SOLUTION AND 
   A MAXIMUM OF   500 OUTER ITERATIONS. 


   D-B-D REDUCTION FACTOR OF    0.960000E+00 AND 
   A D-B-D INCREASE FACTOR OF    0.100000E-03 AND 
   A D-B-D RELAXATION OF    0.000000E+00 AND 
   A MOMENTUM FACTOR OF    0.100000E+00 .


 ***BACKTRACKING IS INACTIVE***
 XMD -- LINEAR SOLUTION BY XMD PACKAGE VERSION 1.30
     BY MOTOMU IBARAKI, OHIO STATE UNIVERSITY, COLOMBUS, OH
                 INPUT READ FROM UNIT 13
 ACCELERATION METHOD                    (IACL) =         1
 NODE ORDERING FLAG                   (NORDER) =         0
 LEVEL OF FILL                         (LEVEL) =         5
 MAXIMUM NUMBER OF ORTHOGONALIZATIONS  (NORTH) =         7
 INDEX FOR USING REDUCED SYSTEM      (IREDSYS) =         1
 RESID. REDUCTION CONVERGE CRITERION  (RRCTOL) =  0.000000E+00
 INDEX FOR USING DROP TOLERANCE     (IDROPTOL) =         0
 DROP TOLERANCE VALUE                  (EPSRN) =  0.500000E-02
 CONVERGENCE CRITERIA OF           (HCLOSEXMD) =  0.100000E-02
 MAX. NUMBER OF LINEAR ITERATIONS  (MXITERXMD) =        50


 UPW1 -- UPSTREAM WEIGHTING FLOW PACKAGE, VERSION 1.1.3, 8/01/2017
         INPUT READ FROM UNIT  7

 #Layer-Property Flow Package input for test simulation 2
 No named parameters

   LAYER FLAGS:
 LAYER       LAYTYP          LAYAVG    CHANI           LAYVKA           LAYWET
 ---------------------------------------------------------------------------
    1             1             0     1.000E+00             0             0
    2             1             0     1.000E+00             0             0

   INTERPRETATION OF LAYER FLAGS:
                        INTERBLOCK     HORIZONTAL    DATA IN
         LAYER TYPE   TRANSMISSIVITY   ANISOTROPY   ARRAY VKA   WETTABILITY
 LAYER   (LAYTYP)        (LAYAVG)      (CHANI)     (LAYVKA)       (LAYWET)
 ---------------------------------------------------------------------------
    1   CONVERTIBLE      HARMONIC     1.000E+00    VERTICAL K  NON-WETTABLE
    2   CONVERTIBLE      HARMONIC     1.000E+00    VERTICAL K  NON-WETTABLE



              HYD. COND. ALONG ROWS FOR LAYER   1
 READING ON UNIT    7 WITH FORMAT: (10F5.0)            

            1           2           3           4           5           6           7           8           9          10
 ........................................................................................................................
   1   3.0000E-03  3.0000E-03   0.000       0.000       0.000       0.000       0.000       0.000       0.000       0.000    
   2   6.0000E-04  3.0000E-03  3.0000E-03   0.000       0.000      6.0000E-04  6.0000E-04  6.0000E-04   0.000       0.000    
   3    0.000      6.0000E-04  3.0000E-03  3.0000E-03  6.0000E-04  6.0000E-04  6.0000E-04  6.0000E-04   0.000       0.000    
   4   6.0000E-04  6.0000E-04  6.0000E-04  3.0000E-03  3.0000E-03  3.0000E-03  6.0000E-04  6.0000E-04  6.0000E-04   0.000    
   5   6.0000E-04  6.0000E-04  6.0000E-04  3.0000E-03  3.0000E-03  3.0000E-03  3.0000E-03  3.0000E-03  3.0000E-03  3.0000E-03
   6   6.0000E-04  6.0000E-04  6.0000E-04  3.0000E-03  3.0000E-03  3.0000E-03  3.0000E-03  3.0000E-03  6.0000E-04  6.0000E-04
   7   6.0000E-04  6.0000E-04  6.0000E-04  3.0000E-03  3.0000E-03  3.0000E-03  3.0000E-03  3.0000E-03  6.0000E-04   0.000    
   8    0.000      6.0000E-04  6.0000E-04  3.0000E-03  3.0000E-03  3.0000E-03  3.0000E-03  6.0000E-04  6.0000E-04   0.000    
   9    0.000      6.0000E-04  6.0000E-04  3.0000E-03  3.0000E-03  3.0000E-03  3.0000E-03  6.0000E-04  6.0000E-04   0.000    
  10    0.000      6.0000E-04  6.0000E-04  3.0000E-03  3.0000E-03  3.0000E-03  3.0000E-03  6.0000E-04  6.0000E-04  6.0000E-04
  11    0.000      6.0000E-04  6.0000E-04  3.0000E-03  3.0000E-03  3.0000E-03  3.0000E-03  6.0000E-04  6.0000E-04   0.000    
  12   6.0000E-04  6.0000E-04  3.0000E-03  3.0000E-03  3.0000E-03  3.0000E-03  3.0000E-03  6.0000E-04  6.0000E-04   0.000    
  13   3.0000E-03  3.0000E-03  3.0000E-03  3.0000E-03  3.0000E-03  3.0000E-03  3.0000E-03  3.0000E-03  3.0000E-03   0.000    
  14    0.000      6.0000E-04  6.0000E-04  6.0000E-04  6.0000E-04  6.0000E-04  6.0000E-04  6.0000E-04  3.0000E-03   0.000    
  15    0.000       0.000      6.0000E-04  6.0000E-04  6.0000E-04  6.0000E-04   0.000       0.000       0.000       0.000    

      VERTICAL HYD. COND. =  8.000000E-05 FOR LAYER   1

         SPECIFIC STORAGE =  1.000000E-06 FOR LAYER   1



                     SPECIFIC YIELD FOR LAYER   1
 READING ON UNIT    7 WITH FORMAT: (10F5.0)            

            1           2           3           4           5           6           7           8           9          10
 ........................................................................................................................
   1   0.2000      0.2000       0.000       0.000       0.000       0.000       0.000       0.000       0.000       0.000    
   2   0.1000      0.2000      0.2000       0.000       0.000      0.1000      0.1000      0.1000       0.000       0.000    
   3    0.000      0.1000      0.2000      0.2000      0.1000      0.1000      0.1000      0.1000       0.000       0.000    
   4   0.1000      0.1000      0.1000      0.2000      0.2000      0.2000      0.1000      0.1000      0.1000       0.000    
   5   0.1000      0.1000      0.1000      0.2000      0.2000      0.2000      0.2000      0.2000      0.2000      0.2000    
   6   0.1000      0.1000      0.1000      0.2000      0.2000      0.2000      0.2000      0.2000      0.1000      0.1000    
   7   0.1000      0.1000      0.1000      0.2000      0.2000      0.2000      0.2000      0.2000      0.1000       0.000    
   8    0.000      0.1000      0.1000      0.2000      0.2000      0.2000      0.2000      0.1000      0.1000       0.000    
   9    0.000      0.1000      0.1000      0.2000      0.2000      0.2000      0.2000      0.1000      0.1000       0.000    
  10    0.000      0.1000      0.1000      0.2000      0.2000      0.2000      0.2000      0.1000      0.1000      0.1000    
  11    0.000      0.1000      0.1000      0.2000      0.2000      0.2000      0.2000      0.1000      0.1000       0.000    
  12   0.1000      0.1000      0.2000      0.2000      0.2000      0.2000      0.2000      0.1000      0.1000       0.000    
  13   0.2000      0.2000      0.2000      0.2000      0.2000      0.2000      0.2000      0.2000      0.2000       0.000    
  14    0.000      0.1000      0.1000      0.1000      0.1000      0.1000      0.1000      0.1000      0.2000       0.000    
  15    0.000       0.000      0.1000      0.1000      0.1000      0.1000       0.000       0.000       0.000       0.000    



              HYD. COND. ALONG ROWS FOR LAYER   2
 READING ON UNIT    7 WITH FORMAT: (10F5.0)            

            1           2           3           4           5           6           7           8           9          10
 ........................................................................................................................
   1   3.0000E-03  3.0000E-03   0.000       0.000       0.000       0.000       0.000       0.000       0.000       0.000    
   2   6.0000E-04  3.0000E-03  3.0000E-03   0.000       0.000      6.0000E-04  6.0000E-04  6.0000E-04   0.000       0.000    
   3    0.000      6.0000E-04  3.0000E-03  3.0000E-03  6.0000E-04  6.0000E-04  6.0000E-04  6.0000E-04   0.000       0.000    
   4   6.0000E-04  6.0000E-04  6.0000E-04  3.0000E-03  3.0000E-03  3.0000E-03  6.0000E-04  6.0000E-04  6.0000E-04   0.000    
   5   6.0000E-04  6.0000E-04  6.0000E-04  3.0000E-03  3.0000E-03  3.0000E-03  3.0000E-03  3.0000E-03  3.0000E-03  3.0000E-03
   6   6.0000E-04  6.0000E-04  6.0000E-04  3.0000E-03  3.0000E-03  3.0000E-03  3.0000E-03  3.0000E-03  6.0000E-04  6.0000E-04
   7   6.0000E-04  6.0000E-04  6.0000E-04  3.0000E-03  3.0000E-03  3.0000E-03  3.0000E-03  3.0000E-03  6.0000E-04   0.000    
   8    0.000      6.0000E-04  6.0000E-04  3.0000E-03  3.0000E-03  3.0000E-03  3.0000E-03  6.0000E-04  6.0000E-04   0.000    
   9    0.000      6.0000E-04  6.0000E-04  3.0000E-03  3.0000E-03  3.0000E-03  3.0000E-03  6.0000E-04  6.0000E-04   0.000    
  10    0.000      6.0000E-04  6.0000E-04  3.0000E-03  3.0000E-03  3.0000E-03  3.0000E-03  6.0000E-04  6.0000E-04  6.0000E-04
  11    0.000      6.0000E-04  6.0000E-04  3.0000E-03  3.0000E-03  3.0000E-03  3.0000E-03  6.0000E-04  6.0000E-04   0.000    
  12   6.0000E-04  6.0000E-04  3.0000E-03  3.0000E-03  3.0000E-03  3.0000E-03  3.0000E-03  6.0000E-04  6.0000E-04   0.000    
  13   3.0000E-03  3.0000E-03  3.0000E-03  3.0000E-03  3.0000E-03  3.0000E-03  3.0000E-03  3.0000E-03  3.0000E-03   0.000    
  14    0.000      6.0000E-04  6.0000E-04  6.0000E-04  6.0000E-04  6.0000E-04  6.0000E-04  6.0000E-04  3.0000E-03   0.000    
  15    0.000       0.000      6.0000E-04  6.0000E-04  6.0000E-04  6.0000E-04   0.000       0.000       0.000       0.000    

      VERTICAL HYD. COND. =  8.000000E-05 FOR LAYER   2

         SPECIFIC STORAGE =  1.000000E-06 FOR LAYER   2



                     SPECIFIC YIELD FOR LAYER   2
 READING ON UNIT    7 WITH FORMAT: (10F5.0)            

            1           2           3           4           5           6           7           8           9          10
 ........................................................................................................................
   1   0.2000      0.2000       0.000       0.000       0.000       0.000       0.000       0.000       0.000       0.000    
   2   0.1000      0.2000      0.2000       0.000       0.000      0.1000      0.1000      0.1000       0.000       0.000    
   3    0.000      0.1000      0.2000      0.2000      0.1000      0.1000      0.1000      0.1000       0.000       0.000    
   4   0.1000      0.1000      0.1000      0.2000      0.2000      0.2000      0.1000      0.1000      0.1000       0.000    
   5   0.1000      0.1000      0.1000      0.2000      0.2000      0.2000      0.2000      0.2000      0.2000      0.2000    
   6   0.1000      0.1000      0.1000      0.2000      0.2000      0.2000      0.2000      0.2000      0.1000      0.1000    
   7   0.1000      0.1000      0.1000      0.2000      0.2000      0.2000      0.2000      0.2000      0.1000       0.000    
   8    0.000      0.1000      0.1000      0.2000      0.2000      0.2000      0.2000      0.1000      0.1000       0.000    
   9    0.000      0.1000      0.1000      0.2000      0.2000      0.2000      0.2000      0.1000      0.1000       0.000    
  10    0.000      0.1000      0.1000      0.2000      0.2000      0.2000      0.2000      0.1000      0.1000      0.1000    
  11    0.000      0.1000      0.1000      0.2000      0.2000      0.2000      0.2000      0.1000      0.1000       0.000    
  12   0.1000      0.1000      0.2000      0.2000      0.2000      0.2000      0.2000      0.1000      0.1000       0.000    
  13   0.2000      0.2000      0.2000      0.2000      0.2000      0.2000      0.2000      0.2000      0.2000       0.000    
  14    0.000      0.1000      0.1000      0.1000      0.1000      0.1000      0.1000      0.1000      0.2000       0.000    
  15    0.000       0.000      0.1000      0.1000      0.1000      0.1000       0.000       0.000       0.000       0.000    

 WEL -- WELL PACKAGE FOR NWT VERSION 1.1.2,  9/15/2016 INPUT READ FROM UNIT   16
 #Well Package input for test simulation 2
 No named parameters
 MAXIMUM OF     10 ACTIVE WELLS AT ONE TIME
 CELL-BY-CELL FLOWS WILL BE PRINTED WHEN ICBCFL NOT 0
 No named parameters
  PHIRAMP WILL BE SET TO A DEFAULT VALUE OF 1.0E-5
  WELLS WITH REDUCED PUMPING WILL BE REPORTED TO THE MAIN LISTING FILE


     0 Well parameters

 GHB -- GENERAL-HEAD BOUNDARY PACKAGE, VERSION 7, 5/2/2005
         INPUT READ FROM UNIT   17
 No named parameters
 MAXIMUM OF      2 ACTIVE GHB CELLS AT ONE TIME
 CELL-BY-CELL FLOWS WILL BE PRINTED WHEN ICBCFL NOT 0


     0 GHB parameters

 SFR7 -- STREAMFLOW ROUTING PACKAGE, VERSION 1.0.5, 2012-04-05
         INPUT READ FROM UNIT  15
 #SFR2 Package input for Test Simulation 2
 No named parameters

 PROCESSING SFR2 OPTIONS
 
          1 Specified inflow files will be read with a maximum of         50 row entries per file

 END PROCESSING SFR2 OPTIONS
 


 NUMBER OF STREAM REACHES IS   38

 NUMBER OF STREAM SEGMENTS IS   10

 NUMBER OF STREAM PARAMETERS IS    0

 NUMBER OF STREAM SEGMENTS DEFINED USING PARAMETERS IS              0

 MAXIMUM ERROR FOR STREAM LEAKAGE RATES IS  1.00E-06

 CONSTANT FOR MANNINGS EQUATION IS  1.4860E+00



 STREAM OUTPUT WILL BE WRITTEN TO FILE ON UNIT   81


   STREAM NETWORK DESCRIPTION: 

   LAYER    ROW    COL   SEGMENT   REACH     LENGTH
                          NUMBER   NUMBER    IN CELL        
   --------------------------------------------------
      2      1      1       1        1    4.5000E+03
      2      2      2       1        2    7.0000E+03
      2      3      3       1        3    6.0000E+03
      2      3      4       1        4    5.5500E+03
      2      4      5       2        1    6.5000E+03
      2      5      6       2        2    5.0000E+03
      2      6      6       2        3    5.0000E+03
      2      7      6       2        4    5.0000E+03
      2      8      6       2        5    5.0000E+03
      2      3      5       3        1    5.0000E+03
      2      3      6       3        2    5.0000E+03
      2      3      7       3        3    4.5000E+03
      2      4      8       3        4    6.0000E+03
      2      5      8       3        5    5.0000E+03
      2      6      8       3        6    2.0000E+03
      2      5     10       4        1    2.5000E+03
      2      5      9       4        2    5.0000E+03
      2      6      8       4        3    3.5000E+03
      2      6      8       5        1    4.0000E+03
      2      7      7       5        2    5.0000E+03
      2      8      7       5        3    3.5000E+03
      2      8      6       5        4    2.5000E+03
      2      9      6       6        1    5.0000E+03
      2     10      7       6        2    5.0000E+03
      2     11      7       6        3    5.0000E+03
      2     12      7       6        4    5.0000E+03
      2     13      7       6        5    2.0000E+03
      2     14      9       7        1    5.0000E+03
      2     13      8       7        2    5.5000E+03
      2     13      7       7        3    5.0000E+03
      2     13      6       8        1    5.0000E+03
      2     13      5       8        2    5.0000E+03
      2     13      4       8        3    5.0000E+03
      2     13      3       8        4    5.0000E+03
      2     13      2       8        5    5.0000E+03
      2     13      1       8        6    3.0000E+03
      2      4      5       9        1    1.0000E+01
      2      4      5      10        1    1.0000E+01




 UZF1 -- UNSATURATED FLOW PACKAGE, VERSION 1.4, 02/06/2012
         INPUT READ FROM UNIT 19
 #UZF Package input for test simulation 2
 No named parameters

 PROCESSING UZF OPTIONS
 
 
 INITIAL WATER CONTENT (THTI) WILL BE 
READ FOR THE FIRST SS OR TR STRESS PERIOD
 

 END PROCESSING UZF OPTIONS



            AREAL EXTENT OF UZ FLOW
 READING ON UNIT   19 WITH FORMAT: (20I4)              

                1           2           3           4           5           6           7           8           9          10
 ............................................................................................................................
   1            2           2           0           0           0           0           0           0           0           0
   2            2           2           2           0           0           2           2           2           0           0
   3            0           2           2           2           2           2           2           2           0           0
   4            2           2           2           2           2           2           2           2           2           0
   5            2           2           2           2           2           2           2           2           2           2
   6            2           2           2           2           2           2           2           2           2           2
   7            2           2           2           2           2           2           2           2           2           0
   8            0           2           2           2           2           2           2           2           2           0
   9            0           2           2           2           2           2           2           2           2           0
  10            0           2           2           2           2           2           2           2           2           2
  11            0           2           2           2           2           2           2           2           2           0
  12            2           2           2           2           2           2           2           2           2           0
  13            2           2           2           2           2           2           2           2           2           0
  14            0           2           2           2           2           2           2           2           2           0
  15            0           0           2           2           2           2           0           0           0           0
 OPTION 3 -- RECHARGE IN UZF TO HIGHEST ACTIVE NODE IN EACH VERTICAL COLUMN



            ROUTING OVERLAND RUNOFF
 READING ON UNIT   19 WITH FORMAT: (20I4)              

                1           2           3           4           5           6           7           8           9          10
 ............................................................................................................................
   1            1           1           0           0           0           0           0           0           0           0
   2            1           1           1           0           0           3           3           3           0           0
   3            0           1           1           1           3           3           3           3           0           0
   4            8           8           2           2           2           2           2           3           3           0
   5            8           8           8           8           2           2           2           3           4           4
   6            8           8           8           8           8           2           2           4           4           4
   7            8           8           8           8           8           2           5           5           5           0
   8            0           8           8           8           8           2           5           5           5           0
   9            0           8           8           8           8           6           6           6           6           0
  10            0           8           8           8           8           6           6           6           6           6
  11            0           8           8           8           8           8           6           6           7           0
  12            8           8           8           8           8           8           6           7           7           0
  13            8           8           8           8           8           8           7           7           7           0
  14            0           8           8           8           8           8           7           7           7           0
  15            0           0           8           8           8           8           0           0           0           0

     BROOKS-COREY EPSILON =   3.50000    

  SATURATED WATER CONTENT =  0.300000    



              INITIAL WATER CONTENT
 READING ON UNIT   19 WITH FORMAT: (FREE)              

            1           2           3           4           5           6           7           8           9          10
 ........................................................................................................................
   1   0.1100      0.1100       0.000       0.000       0.000       0.000       0.000       0.000       0.000       0.000    
   2   0.2100      0.1100      0.1100       0.000       0.000      0.2100      0.2100      0.2100       0.000       0.000    
   3    0.000      0.2100      0.1100      0.1100      0.2100      0.2100      0.2100      0.2100       0.000       0.000    
   4   0.2100      0.2100      0.2100      0.1100      0.1100      0.1100      0.2100      0.2100      0.2100       0.000    
   5   0.2100      0.2100      0.2100      0.1100      0.1100      0.1100      0.1100      0.1100      0.1100      0.1100    
   6   0.2100      0.2100      0.2100      0.1100      0.1100      0.1100      0.1100      0.1100      0.2100      0.2100    
   7   0.2100      0.2100      0.2100      0.1100      0.1100      0.1100      0.1100      0.1100      0.2100       0.000    
   8    0.000      0.2100      0.2100      0.1100      0.1100      0.1100      0.1100      0.2100      0.2100       0.000    
   9    0.000      0.2100      0.2100      0.1100      0.1100      0.1100      0.1100      0.2100      0.2100       0.000    
  10    0.000      0.2100      0.2100      0.1100      0.1100      0.1100      0.1100      0.2100      0.2100      0.2100    
  11    0.000      0.2100      0.2100      0.1100      0.1100      0.1100      0.1100      0.2100      0.2100       0.000    
  12   0.2100      0.2100      0.1100      0.1100      0.1100      0.1100      0.1100      0.2100      0.2100       0.000    
  13   0.1100      0.1100      0.1100      0.1100      0.1100      0.1100      0.1100      0.1100      0.1100       0.000    
  14    0.000      0.2100      0.2100      0.2100      0.2100      0.2100      0.2100      0.2100      0.1100       0.000    
  15    0.000       0.000      0.2100      0.2100      0.2100      0.2100       0.000       0.000       0.000       0.000    

UNSATURATED FLOW RESULTS WILL BE PRINTED TO SEPARATE FILES FOR SELECTED MODEL CELLS, AND TIME STEPS AS DEFINED BY OUTPUT CONTROL PACKAGE 

SELECTED MODEL CELLS ARE: 
 ROW NUMBER  COLUMN NUMBER  FORTRAN UNIT NUMBER  OUTPUT OPTION


       4             5                 65                 1
       4             5                 66                 2
       4             5                 67                 3
       0             0                 68                 4

 LAK7 -- LAKE PACKAGE, VERSION 7, 1/07/2013 INPUT READ FROM UNIT 33
 # Example input for specifying lake bathymetry information using external
 # text files using key word option “TABLEINPUT”
 No named parameters

 SPACE ALLOCATION FOR    150 GRID CELL FACES ADJACENT TOLAKES
 MAXIMUM NUMBER OF LAKES IS  1 FOR THIS SIMULATION
 CELL-BY-CELL SEEPAGES WILL NOT BE PRINTED OR SAVED


 NEWTON ITERATION METHOD FOR COMPUTING LAKE STAGE DURING STEADY-STATE STRESS PERIODS HAS BEEN MODIFIED:
 SPECIFIED THETA OF  0.800 WILL BE AUTOMATICALLY CHANGED TO 1.0 FOR ALL STEADY STATE STRESS PERIODS.
 MAXIMUM NUMBER OF STEADY-STATE ITERATIONS (NSSITR) =    50
 CLOSURE CRITERIA FOR STEADY-STATE LAKE STAGE (SSCNCR) =  1.000000E-04





   3 GAGING STATIONS WERE SPECIFIED.
     (Lakes are identified by a negative value of the Lake Number)
     RECORDS WILL BE WRITTEN TO SEPARATE OUTPUT FILES REPRESENTED BY FOLLOWING UNIT NUMBERS:

 Stream Gages:
  GAGE #   SEGMENT   REACH   UNIT   OUTTYPE
       1       1       4      83       4
       2       2       1      84       4
 Lake Gages:
  GAGE #    LAKE     UNIT   OUTTYPE
       3      -1    -801       3




1
                            STRESS PERIOD NO.    1, LENGTH =   2628000.    
                            -----------------------------------------------

                              NUMBER OF TIME STEPS =     1

                               MULTIPLIER FOR DELT =     1.000

                            INITIAL TIME STEP SIZE =   2628000.    

 WELL NO.  LAYER   ROW   COL   STRESS RATE         
 --------------------------------------------------
      1      2      6      4      -2.000    
      2      2      6      5      -2.000    
      3      2      7      4      -2.000    
      4      2      7      5      -2.000    
      5      2      8      4      -2.000    
      6      2      8      5      -2.000    
      7      2      9      4      -2.000    
      8      2      9      5      -2.000    
      9      2     10      4      -2.000    
     10      2     10      5      -2.000    

     10 WELLS

 BOUND. NO. LAYER   ROW   COL     STAGE      CONDUCTANCE         
 ----------------------------------------------------------------
      1      2     13      1       988.0          0.3800E-01
      2      2     14      9       1045.          0.3800E-01

      2 GHB CELLS



 CLASSIFICATION & COUNT OF STREAM SEGMENTS BASED ON SOURCE OF INFLOW:

                HEADWATER     DIVERSION     RECEIVES TRIBUTARY FLOW
                ---------     ---------     -----------------------
                     3              3               4



                    INPUT DATA FOR EACH STREAM SEGMENT
 ---------------------------------------------------------------------------------------------

 SEGMENT    SEG.     INFLOW   OVERLAND   STREAM    STREAM   ICALC  OUTFLOW  DIVERSION PRIORITY
    NO.    LENGTH     RATE     RUNOFF      ET       PPT.    METH.  TO SEG.  FROM SEG.    NO.

      1  2.305E+04 2.500E+01 0.000E+00 0.000E+00 0.000E+00    4        2        0        0
      2  2.650E+04 0.000E+00 0.000E+00 0.000E+00 0.000E+00    1        6        0        0
      3  2.750E+04 1.000E+01 0.000E+00 0.000E+00 0.000E+00    0        5        1        0
      4  1.100E+04 1.000E+01 0.000E+00 0.000E+00 0.000E+00    1        5        0        0
      5  1.500E+04 0.000E+00 0.000E+00 0.000E+00 0.000E+00    3        6        0        0
      6  2.200E+04 0.000E+00 0.000E+00 0.000E+00 0.000E+00    1        8        0        0
      7  1.550E+04 1.500E+02 0.000E+00 0.000E+00 0.000E+00    2        8        0        0
      8  2.800E+04 0.000E+00 0.000E+00 0.000E+00 0.000E+00    2        0        0        0
      9  1.000E+01 2.000E+03 0.000E+00 0.000E+00 0.000E+00    1       -1        1       -3
     10  1.000E+01 0.000E+00 0.000E+00 0.000E+00 0.000E+00    1        2       -1        0


         STREAMBED PROPERTIES AND STREAM DIMENSIONS

 SEGMENT     BED HYD. COND.      BED THICKNESS     ELEV.-TOP OF BED     WIDTH OF STREAM     DEPTH OF STREAM    STREAM ROUGHNESS
    No.     UPPER     LOWER     UPPER     LOWER     UPPER     LOWER     UPPER     LOWER     UPPER     LOWER   CHANNEL      BANK

     1  3.000E-05 3.000E-05 3.000E+00 3.000E+00 1.095E+03 1.075E+03
     2  3.000E-05 3.000E-05 3.000E+00 3.000E+00 1.075E+03 1.050E+03 1.200E+01 1.200E+01                     3.000E-02
     3  3.000E-05 3.000E-05 2.000E+00 2.000E+00 1.075E+03 1.060E+03 1.000E+01 6.000E+00 2.000E+00 1.000E+00
     4  3.000E-05 3.000E-05 3.000E+00 3.000E+00 1.080E+03 1.060E+03 1.000E+01 1.000E+01                     3.000E-02
     5  3.000E-05 3.000E-05 3.000E+00 3.000E+00 1.060E+03 1.045E+03
     6  3.000E-05 3.000E-05 3.000E+00 3.000E+00 1.045E+03 1.025E+03 1.200E+01 1.200E+01                     3.000E-02
     7  6.000E-05 6.000E-05 3.000E+00 3.000E+00 1.040E+03 1.025E+03                                         2.500E-02 4.500E-02
     8  6.000E-05 6.000E-05 3.000E+00 3.000E+00 1.025E+03 9.900E+02                                         2.500E-02 4.500E-02
     9  3.000E-05 3.000E-05 3.000E+00 3.000E+00 1.070E+03 1.050E+03 2.000E+01 2.000E+01                     3.000E-02
    10  3.000E-05 3.000E-05 3.000E+00 3.000E+00 1.083E+03 1.077E+03 2.000E+01 2.000E+01                     3.000E-02

  EIGHT POINT CROSS-SECTION DATA FOR SEGMENTS WITH ICALC = 2
    X VALUES X VALUES START FROM LEFT SIDE LOOKING DOWNSTREAM

     SEGMENT NO.        X1        X2        X3        X4        X5        X6        X7        X8
            7      0.000E+00 1.000E+01 8.000E+01 1.000E+02 1.500E+02 1.700E+02 2.400E+02 2.500E+02
            8      0.000E+00 1.000E+01 8.000E+01 1.000E+02 1.500E+02 1.700E+02 2.400E+02 2.500E+02

    Z VALUES ARE RELATIVE TO STREAMBED ELEVATION

     SEGMENT NO.          Z1        Z2        Z3        Z4        Z5        Z6        Z7        Z8
            7      2.000E+01 1.300E+01 1.000E+01 2.000E+00 0.000E+00 1.000E+01 1.300E+01 2.000E+01
            8      2.500E+01 1.700E+01 1.300E+01 4.000E+00 0.000E+00 1.000E+01 1.600E+01 2.000E+01

 STREAMFLOW RELATION WITH DEPTH IS BASED ON EQUATION Q = CDPTH*(DEPTH)**FDPTH
 STREAMFLOW RELATION WITH WIDTH IS BASED ON EQUATION Q = AWDTH*(WIDTH)**BWDTH

 SEGMENT NO.      CDPTH     FDPTH    AWDTH     BWDTH

          5 3.000E-01 3.500E-01 3.800E+00 6.000E-01

 STREAMFLOW RELATION WITH DEPTH AND WIDTH IS BASED ON TABULATED VALUES

  SEGMENT NO.   STREAMFLOW       DEPTH       WIDTH

          1     5.0000E-01   2.5000E-01   3.0000E+00
          1     1.0000E+00   4.0000E-01   3.5000E+00
          1     2.0000E+00   5.5000E-01   4.2000E+00
          1     4.0000E+00   7.0000E-01   5.3000E+00
          1     7.0000E+00   8.0000E-01   7.0000E+00
          1     1.0000E+01   9.0000E-01   8.5000E+00
          1     2.0000E+01   1.1000E+00   1.2000E+01
          1     3.0000E+01   1.2500E+00   1.4000E+01
          1     5.0000E+01   1.4000E+00   1.7000E+01
          1     7.5000E+01   1.7000E+00   2.0000E+01
          1     1.0000E+02   1.8000E+00   2.2000E+01



TABULAR INFLOWS WERE READ FOR SEGMENT      1
FROM FILE UNIT NUMBER     55

          TIMES                    INFLOWS
             0.0000000000        20.0000000000
        644000.0000000000        18.0000000000
       1290000.0000000000        18.0000000000
       1930000.0000000000        57.0000000000
       2580000.0000000000        22.0000000000
       3220000.0000000000        21.0000000000
       3860000.0000000000        26.0000000000
       4510000.0000000000        25.0000000000
       5150000.0000000000        25.0000000000
       5800000.0000000000        27.0000000000
       6440000.0000000000        24.0000000000
       7080000.0000000000        23.0000000000
       7730000.0000000000        24.0000000000
       8370000.0000000000        24.0000000000
       9020000.0000000000        25.0000000000
       9660000.0000000000        23.0000000000
      10300000.0000000000        21.0000000000
      10900000.0000000000        39.0000000000
      11600000.0000000000        29.0000000000
      12200000.0000000000      2520.0000000000
      12900000.0000000000       160.0000000000
      13500000.0000000000       100.0000000000
      14200000.0000000000        73.0000000000
      14800000.0000000000       503.0000000000
      15500000.0000000000       958.0000000000
      16100000.0000000000       304.0000000000
      16700000.0000000000       167.0000000000
      17400000.0000000000       119.0000000000
      18000000.0000000000       175.0000000000
      18700000.0000000000       627.0000000000
      19300000.0000000000       278.0000000000
      20000000.0000000000       288.0000000000
      20600000.0000000000       204.0000000000
      21300000.0000000000       148.0000000000
      21900000.0000000000       361.0000000000
      22500000.0000000000       165.0000000000
      23200000.0000000000       128.0000000000
      23800000.0000000000       117.0000000000
      24500000.0000000000        79.0000000000
      25100000.0000000000        61.0000000000
      25800000.0000000000        46.0000000000
      26400000.0000000000        37.0000000000
      27000000.0000000000        25.0000000000
      27700000.0000000000        19.0000000000
      28300000.0000000000        14.0000000000
      29000000.0000000000        15.0000000000
      29600000.0000000000        11.0000000000
      30300000.0000000000         8.0000000000
      30900000.0000000000         4.4000000954
      31600000.0000000000         2.5000000000



            AREAL INFILTRATION RATE
 READING ON UNIT   19 WITH FORMAT: (10F4.0)            

            1           2           3           4           5           6           7           8           9          10
 ........................................................................................................................
   1   1.0000E-10  2.0000E-10   0.000       0.000       0.000       0.000       0.000       0.000       0.000       0.000    
   2   2.0000E-10  1.0000E-10  2.0000E-10   0.000       0.000      8.0000E-10  8.0000E-10  5.0000E-10   0.000       0.000    
   3    0.000      5.0000E-10  1.0000E-10  1.0000E-10  8.0000E-10  8.0000E-10  5.0000E-10  5.0000E-10   0.000       0.000    
   4   8.0000E-10  5.0000E-10  1.0000E-10  1.0000E-10  1.0000E-10  1.0000E-10  1.0000E-10  1.0000E-10  2.0000E-10   0.000    
   5   8.0000E-10  5.0000E-10  1.0000E-10  1.0000E-10  1.0000E-10  1.0000E-10  1.0000E-10  1.0000E-10  1.0000E-10  1.0000E-10
   6   8.0000E-10  5.0000E-10  5.0000E-10  2.0000E-10  2.0000E-10  1.0000E-10  1.0000E-10  1.0000E-10  1.0000E-10  5.0000E-10
   7   8.0000E-10  5.0000E-10  5.0000E-10  2.0000E-10  2.0000E-10  1.0000E-10  1.0000E-10  2.0000E-10  2.0000E-10   0.000    
   8    0.000      5.0000E-10  5.0000E-10  2.0000E-10  2.0000E-10  1.0000E-10  1.0000E-10  2.0000E-10  5.0000E-10   0.000    
   9    0.000      5.0000E-10  5.0000E-10  2.0000E-10  2.0000E-10  1.0000E-10  1.0000E-10  2.0000E-10  5.0000E-10   0.000    
  10    0.000      5.0000E-10  5.0000E-10  2.0000E-10  2.0000E-10  1.0000E-10  1.0000E-10  2.0000E-10  5.0000E-10  8.0000E-10
  11    0.000      1.0000E-10  1.0000E-10  1.0000E-10  1.0000E-10  1.0000E-10  1.0000E-10  2.0000E-10  5.0000E-10   0.000    
  12   1.0000E-10  1.0000E-10  1.0000E-10  1.0000E-10  1.0000E-10  1.0000E-10  1.0000E-10  1.0000E-10  2.0000E-10   0.000    
  13   1.0000E-10  1.0000E-10  2.0000E-10  2.0000E-10  2.0000E-10  2.0000E-10  2.0000E-10  1.0000E-10  1.0000E-10   0.000    
  14    0.000      2.0000E-10  5.0000E-10  5.0000E-10  5.0000E-10  5.0000E-10  5.0000E-10  2.0000E-10  1.0000E-10   0.000    
  15    0.000       0.000      8.0000E-10  8.0000E-10  8.0000E-10  8.0000E-10   0.000       0.000       0.000       0.000    

                  ET RATE =  5.000000E-08

      ET EXTINCTION DEPTH =   15.0000    



           EXTINCTION WATER CONTENT
 READING ON UNIT   19 WITH FORMAT: (10F4.0)            

            1           2           3           4           5           6           7           8           9          10
 ........................................................................................................................
   1   0.1000      0.1000       0.000       0.000       0.000       0.000       0.000       0.000       0.000       0.000    
   2   0.2000      0.1000      0.1000       0.000       0.000      0.2000      0.2000      0.2000       0.000       0.000    
   3    0.000      0.2000      0.1000      0.1000      0.2000      0.2000      0.2000      0.2000       0.000       0.000    
   4   0.2000      0.2000      0.2000      0.1000      0.1000      0.1000      0.2000      0.2000      0.2000      0.1000    
   5   0.2000      0.2000      0.2000      0.1000      0.1000      0.1000      0.1000      0.1000      0.1000      0.1000    
   6   0.2000      0.2000      0.2000      0.1000      0.1000      0.1000      0.1000      0.1000      0.2000      0.2000    
   7   0.2000      0.2000      0.2000      0.1000      0.1000      0.1000      0.1000      0.1000      0.2000       0.000    
   8    0.000      0.2000      0.2000      0.1000      0.1000      0.1000      0.1000      0.2000      0.2000       0.000    
   9    0.000      0.2000      0.2000      0.1000      0.1000      0.1000      0.1000      0.2000      0.2000       0.000    
  10    0.000      0.2000      0.2000      0.1000      0.1000      0.1000      0.1000      0.2000      0.2000      0.2000    
  11    0.000      0.2000      0.2000      0.1000      0.1000      0.1000      0.1000      0.2000      0.2000       0.000    
  12   0.2000      0.2000      0.1000      0.1000      0.1000      0.1000      0.1000      0.2000      0.2000       0.000    
  13   0.1000      0.1000      0.1000      0.1000      0.1000      0.1000      0.1000      0.1000      0.1000       0.000    
  14    0.000      0.2000      0.2000      0.2000      0.2000      0.2000      0.2000      0.2000      0.1000       0.000    
  15    0.000       0.000      0.2000      0.2000      0.2000      0.2000       0.000       0.000       0.000       0.000    


 LAKE PACKAGE ACTIVE:  CALCULATED LAKE STAGE FOR EACH TIME STEP WILL BE STORED IN HNEW ARRAY.



 INITIAL LAKE STAGE:  LAKE    STAGE    SS MIN    SS MAX

                        1  1074.500  1074.500  1090.000




 If any subsequent steady-state stress periods, min. and max. stages for each lake will be read in Record 9a.




 STAGE/VOLUME RELATION FOR LAKE  1

      STAGE        VOLUME        AREA

   1.07450E+03   0.00000E+00   0.00000E+00
   1.07456E+03   1.06000E+04   1.67000E+05
   1.07463E+03   3.17000E+04   3.33000E+05
   1.07469E+03   6.33000E+04   5.00000E+05
   1.07475E+03   1.06000E+05   6.67000E+05
   1.07482E+03   1.58000E+05   8.33000E+05
   1.07488E+03   2.22000E+05   1.00000E+06
   1.07494E+03   2.96000E+05   1.17000E+06
   1.07501E+03   3.80000E+05   1.33000E+06
   1.07507E+03   4.75000E+05   1.50000E+06
   1.07513E+03   5.81000E+05   1.67000E+06
   1.07520E+03   6.97000E+05   1.83000E+06
   1.07526E+03   8.23000E+05   2.00000E+06
   1.07532E+03   9.61000E+05   2.17000E+06
   1.07539E+03   1.11000E+06   2.33000E+06
   1.07545E+03   1.27000E+06   2.50000E+06
   1.07551E+03   1.44000E+06   2.67000E+06
   1.07558E+03   1.61000E+06   2.83000E+06
   1.07564E+03   1.80000E+06   3.00000E+06
   1.07570E+03   2.01000E+06   3.17000E+06
   1.07577E+03   2.22000E+06   3.33000E+06
   1.07583E+03   2.44000E+06   3.50000E+06
   1.07589E+03   2.67000E+06   3.67000E+06
   1.07596E+03   2.91000E+06   3.83000E+06
   1.07602E+03   3.17000E+06   4.00000E+06
   1.07608E+03   3.43000E+06   4.17000E+06
   1.07615E+03   3.70000E+06   4.33000E+06
   1.07621E+03   3.99000E+06   4.50000E+06
   1.07627E+03   4.29000E+06   4.67000E+06
   1.07634E+03   4.59000E+06   4.83000E+06
   1.07640E+03   4.91000E+06   5.00000E+06
   1.07646E+03   5.24000E+06   5.17000E+06
   1.07653E+03   5.57000E+06   5.33000E+06
   1.07659E+03   5.92000E+06   5.50000E+06
   1.07665E+03   6.28000E+06   5.67000E+06
   1.07672E+03   6.65000E+06   5.83000E+06
   1.07678E+03   7.03000E+06   6.00000E+06
   1.07684E+03   7.42000E+06   6.17000E+06
   1.07691E+03   7.82000E+06   6.33000E+06
   1.07697E+03   8.23000E+06   6.50000E+06
   1.07703E+03   8.66000E+06   6.67000E+06
   1.07710E+03   9.09000E+06   6.83000E+06
   1.07716E+03   9.53000E+06   7.00000E+06
   1.07722E+03   9.99000E+06   7.17000E+06
   1.07729E+03   1.04000E+07   7.33000E+06
   1.07735E+03   1.09000E+07   7.50000E+06
   1.07741E+03   1.14000E+07   7.67000E+06
   1.07748E+03   1.19000E+07   7.83000E+06
   1.07754E+03   1.24000E+07   8.00000E+06
   1.07760E+03   1.29000E+07   8.17000E+06
   1.07767E+03   1.35000E+07   8.33000E+06
   1.07773E+03   1.40000E+07   8.50000E+06
   1.07779E+03   1.45000E+07   8.67000E+06
   1.07786E+03   1.51000E+07   8.83000E+06
   1.07792E+03   1.57000E+07   9.00000E+06
   1.07798E+03   1.63000E+07   9.17000E+06
   1.07805E+03   1.68000E+07   9.33000E+06
   1.07811E+03   1.74000E+07   9.50000E+06
   1.07817E+03   1.81000E+07   9.67000E+06
   1.07824E+03   1.87000E+07   9.83000E+06
   1.07830E+03   1.93000E+07   1.00000E+07
   1.07836E+03   2.00000E+07   1.02000E+07
   1.07843E+03   2.06000E+07   1.03000E+07
   1.07849E+03   2.13000E+07   1.05000E+07
   1.07855E+03   2.20000E+07   1.07000E+07
   1.07862E+03   2.26000E+07   1.08000E+07
   1.07868E+03   2.33000E+07   1.10000E+07
   1.07874E+03   2.40000E+07   1.12000E+07
   1.07881E+03   2.48000E+07   1.13000E+07
   1.07887E+03   2.55000E+07   1.15000E+07
   1.07893E+03   2.62000E+07   1.17000E+07
   1.07900E+03   2.70000E+07   1.18000E+07
   1.07906E+03   2.77000E+07   1.20000E+07
   1.07912E+03   2.85000E+07   1.22000E+07
   1.07919E+03   2.93000E+07   1.23000E+07
   1.07925E+03   3.01000E+07   1.25000E+07
   1.07931E+03   3.09000E+07   1.27000E+07
   1.07938E+03   3.17000E+07   1.28000E+07
   1.07944E+03   3.25000E+07   1.30000E+07
   1.07950E+03   3.34000E+07   1.32000E+07
   1.07957E+03   3.42000E+07   1.33000E+07
   1.07963E+03   3.51000E+07   1.35000E+07
   1.07969E+03   3.59000E+07   1.37000E+07
   1.07976E+03   3.68000E+07   1.38000E+07
   1.07982E+03   3.77000E+07   1.40000E+07
   1.07988E+03   3.86000E+07   1.42000E+07
   1.07995E+03   3.95000E+07   1.43000E+07
   1.08001E+03   4.04000E+07   1.45000E+07
   1.08007E+03   4.13000E+07   1.47000E+07
   1.08014E+03   4.23000E+07   1.48000E+07
   1.08020E+03   4.32000E+07   1.50000E+07
   1.08026E+03   4.42000E+07   1.52000E+07
   1.08033E+03   4.52000E+07   1.53000E+07
   1.08039E+03   4.61000E+07   1.55000E+07
   1.08045E+03   4.71000E+07   1.57000E+07
   1.08052E+03   4.81000E+07   1.58000E+07
   1.08058E+03   4.91000E+07   1.60000E+07
   1.08064E+03   5.02000E+07   1.62000E+07
   1.08071E+03   5.12000E+07   1.63000E+07
   1.08077E+03   5.22000E+07   1.65000E+07
   1.08083E+03   5.33000E+07   1.67000E+07
   1.08090E+03   5.44000E+07   1.68000E+07
   1.08096E+03   5.54000E+07   1.70000E+07
   1.08102E+03   5.65000E+07   1.72000E+07
   1.08109E+03   5.76000E+07   1.73000E+07
   1.08115E+03   5.87000E+07   1.75000E+07
   1.08121E+03   5.99000E+07   1.77000E+07
   1.08128E+03   6.10000E+07   1.78000E+07
   1.08134E+03   6.21000E+07   1.80000E+07
   1.08140E+03   6.33000E+07   1.82000E+07
   1.08147E+03   6.44000E+07   1.83000E+07
   1.08153E+03   6.56000E+07   1.85000E+07
   1.08159E+03   6.68000E+07   1.87000E+07
   1.08166E+03   6.80000E+07   1.88000E+07
   1.08172E+03   6.92000E+07   1.90000E+07
   1.08178E+03   7.04000E+07   1.92000E+07
   1.08185E+03   7.16000E+07   1.93000E+07
   1.08191E+03   7.29000E+07   1.95000E+07
   1.08197E+03   7.41000E+07   1.97000E+07
   1.08204E+03   7.54000E+07   1.98000E+07
   1.08210E+03   7.66000E+07   2.00000E+07
   1.08216E+03   7.79000E+07   2.02000E+07
   1.08223E+03   7.92000E+07   2.03000E+07
   1.08229E+03   8.05000E+07   2.05000E+07
   1.08235E+03   8.18000E+07   2.07000E+07
   1.08242E+03   8.31000E+07   2.08000E+07
   1.08248E+03   8.45000E+07   2.10000E+07
   1.08254E+03   8.58000E+07   2.12000E+07
   1.08261E+03   8.71000E+07   2.13000E+07
   1.08267E+03   8.85000E+07   2.15000E+07
   1.08273E+03   8.99000E+07   2.17000E+07
   1.08280E+03   9.13000E+07   2.18000E+07
   1.08286E+03   9.27000E+07   2.20000E+07
   1.08292E+03   9.41000E+07   2.22000E+07
   1.08299E+03   9.55000E+07   2.23000E+07
   1.08305E+03   9.69000E+07   2.25000E+07
   1.08311E+03   9.83000E+07   2.27000E+07
   1.08318E+03   9.98000E+07   2.28000E+07
   1.08324E+03   1.01000E+08   2.30000E+07
   1.08330E+03   1.03000E+08   2.32000E+07
   1.08337E+03   1.04000E+08   2.33000E+07
   1.08343E+03   1.06000E+08   2.35000E+07
   1.08349E+03   1.07000E+08   2.37000E+07
   1.08356E+03   1.09000E+08   2.38000E+07
   1.08362E+03   1.10000E+08   2.40000E+07
   1.08368E+03   1.12000E+08   2.42000E+07
   1.08375E+03   1.13000E+08   2.43000E+07
   1.08381E+03   1.15000E+08   2.45000E+07
   1.08387E+03   1.16000E+08   2.47000E+07
   1.08394E+03   1.18000E+08   2.48000E+07
   1.08400E+03   1.20000E+08   2.50000E+07



                      LAKE ID ARRAY FOR LAYER   1
 READING ON UNIT   33 WITH FORMAT: (20I4)              

                1           2           3           4           5           6           7           8           9          10
 ............................................................................................................................
   1            0           0           0           0           0           0           0           0           0           0
   2            0           0           0           0           0           0           0           0           0           0
   3            0           0           0           0           0           0           0           0           0           0
   4            0           0           0           0           1           0           0           0           0           0
   5            0           0           0           0           0           0           0           0           0           0
   6            0           0           0           0           0           0           0           0           0           0
   7            0           0           0           0           0           0           0           0           0           0
   8            0           0           0           0           0           0           0           0           0           0
   9            0           0           0           0           0           0           0           0           0           0
  10            0           0           0           0           0           0           0           0           0           0
  11            0           0           0           0           0           0           0           0           0           0
  12            0           0           0           0           0           0           0           0           0           0
  13            0           0           0           0           0           0           0           0           0           0
  14            0           0           0           0           0           0           0           0           0           0
  15            0           0           0           0           0           0           0           0           0           0



                      LAKE ID ARRAY FOR LAYER   2
 READING ON UNIT   33 WITH FORMAT: (20I4)              

                1           2           3           4           5           6           7           8           9          10
 ............................................................................................................................
   1            0           0           0           0           0           0           0           0           0           0
   2            0           0           0           0           0           0           0           0           0           0
   3            0           0           0           0           0           0           0           0           0           0
   4            0           0           0           0           0           0           0           0           0           0
   5            0           0           0           0           0           0           0           0           0           0
   6            0           0           0           0           0           0           0           0           0           0
   7            0           0           0           0           0           0           0           0           0           0
   8            0           0           0           0           0           0           0           0           0           0
   9            0           0           0           0           0           0           0           0           0           0
  10            0           0           0           0           0           0           0           0           0           0
  11            0           0           0           0           0           0           0           0           0           0
  12            0           0           0           0           0           0           0           0           0           0
  13            0           0           0           0           0           0           0           0           0           0
  14            0           0           0           0           0           0           0           0           0           0
  15            0           0           0           0           0           0           0           0           0           0





   LAKEBED LEAKANCE ARRAY =  5.000000E-02 FOR LAYER   1

   LAKEBED LEAKANCE ARRAY =  5.000000E-02 FOR LAYER   2

       LOCATIONS, LAKE #, INTERFACE TYPE FOR GRID CELLS ADJACENT TO LAKES:
     -----------------------------------------------------------------------
     LAYER #    ROW #    COLUMN #   LAKE #  INTERFACE TYPE  LAKEBED LEAKANCE
         1         4         4         1         2             5.000E-02
         1         3         5         1         3             5.000E-02
         2         4         5         1         6             5.000E-02
         1         5         5         1         4             5.000E-02
         1         4         6         1         1             5.000E-02

     NUMBER OF LAKE-AQUIFER CELL INTERFACES =     5

 NUMBER OF CONNECTED LAKE SYSTEMS IN SIMULATION IS   0

 LAKE       PRECIP     EVAP     RUNOFF   WITHDRAW   BOTTOM     AREA
----------------------------------------------------------------------
   1     0.000E+00 4.000E-08 0.000E+00  0.000E+00 1.074E+03 2.500E+07




         C               INTERFACE CONDUCTANCES BETWEEN LAKE AND AQUIFER CELLS
   L     O          (IF TYPE = 6, CONDUCTANCE (L^2/T) IS BETWEEN AQUIFER CELL AND OVERLYING LAKE CELL.)
   A     L  L  T    (IF TYPE = 1 TO 4, CONDUCTANCES ARE PER UNIT SATURATED THICKNESS (L/T).)
   Y  R  U  A  Y
   E  O  M  K  P                        LAKEBED      C O N D U C T A N C E S
   R  W  N  E  E     DELTA Y   DELTA X  LEAKANCE   LAKEBED   AQUIFER  COMBINED
 _______________________________________________________________________________
   1  4  4  1  2    5.00E+03  5.00E+03  5.00E-02  2.50E+02  6.00E-03  6.00E-03
   1  3  5  1  3    5.00E+03  5.00E+03  5.00E-02  2.50E+02  1.20E-03  1.20E-03
   2  4  5  1  6    5.00E+03  5.00E+03  5.00E-02  1.25E+06  9.42E+00  9.42E+00
   1  5  5  1  4    5.00E+03  5.00E+03  5.00E-02  2.50E+02  6.00E-03  6.00E-03
   1  4  6  1  1    5.00E+03  5.00E+03  5.00E-02  2.50E+02  6.00E-03  6.00E-03
      LAKE     INFLOWING STREAM SEGMENT
         1                  9

 MAXIMUM NUMBER OF STREAMS INFLOWING TO A LAKE IS    1

      LAKE     OUTFLOWING STREAM SEGMENT
         1                 10

 MAXIMUM NUMBER OF STREAMS OUTFLOWING FROM A LAKE IS    1

 
 SOLVING FOR HEAD 
                                                   Max.-Head-Change                         Max.-Flux-Residual
  Residual-Control   Outer-Iter.   Inner-Iter.     Column Row Layer    Maximum-Head-Change  Column Row Layer    Maximum-Flux-Residual          L2-NORM 
          0                 1           3            10   10     2      -0.1026957320E+02       3   13    2        -0.2143134765E+02      0.2863090023E+02
          0                 2           4             8    4     2      -0.4057149333E+01       4   13    2        -0.4174093370E+01      0.4696239373E+01
          0                 3           3             8    4     2       0.2386617543E+00       4   13    2        -0.1302856415E+01      0.1321769838E+01
          0                 4           2             4   13     2       0.1812558416E-01       4   13    2         0.1167399227E+00      0.1222781864E+00
          0                 5           1             1   13     2       0.9931298972E-03       4   13    2        -0.6103006849E-02      0.8335060414E-02

    ------------------------------------------------
       NWT REQUIRED            5 OUTER ITERATIONS 
       AND A TOTAL OF         13 INNER ITERATIONS.
    ------------------------------------------------

 OUTPUT CONTROL FOR STRESS PERIOD    1   TIME STEP    1
    PRINT BUDGET
    SAVE BUDGET

            WELLS   PERIOD    1   STEP   1
 WELL      1   LAYER   2   ROW     6   COL     4   RATE    -2.00000    
 WELL      2   LAYER   2   ROW     6   COL     5   RATE    -2.00000    
 WELL      3   LAYER   2   ROW     7   COL     4   RATE    -2.00000    
 WELL      4   LAYER   2   ROW     7   COL     5   RATE    -2.00000    
 WELL      5   LAYER   2   ROW     8   COL     4   RATE    -2.00000    
 WELL      6   LAYER   2   ROW     8   COL     5   RATE    -2.00000    
 WELL      7   LAYER   2   ROW     9   COL     4   RATE    -2.00000    
 WELL      8   LAYER   2   ROW     9   COL     5   RATE    -2.00000    
 WELL      9   LAYER   2   ROW    10   COL     4   RATE    -2.00000    
 WELL     10   LAYER   2   ROW    10   COL     5   RATE    -2.00000    

  HEAD DEP BOUNDS   PERIOD    1   STEP     1
 BOUNDARY      1   LAYER   2   ROW    13   COL     1   RATE   -0.286583    
 BOUNDARY      2   LAYER   2   ROW    14   COL     9   RATE    0.215996    



 STREAM LISTING     PERIOD      1   STEP        1

 LAYER ROW COL. STREAM  RCH.  FLOW INTO     FLOW TO   FLOW OUT OF   OVRLND.     DIRECT     STREAM       STREAM     STREAM     STREAM   STREAMBED  STREAMBED
                SEG.NO.  NO.  STRM. RCH.    AQUIFER    STRM. RCH.    RUNOFF     PRECIP       ET          HEAD       DEPTH      WIDTH   CONDCTNC.   GRADIENT

   2    1    1     1     1    2.8209E+01  2.0699E+00   2.6139E+01  0.000E+00  0.000E+00  0.000E+00  1.09426E+03  1.212E+00  1.348E+01  6.067E-01  1.137E+00
   2    2    2     1     2    2.6139E+01  3.7684E+00   2.2371E+01  0.000E+00  0.000E+00  0.000E+00  1.08923E+03  1.169E+00  1.291E+01  9.039E-01  1.390E+00
   2    3    3     1     3    2.2371E+01  3.0108E+00   1.9360E+01  0.000E+00  0.000E+00  0.000E+00  1.08353E+03  1.115E+00  1.219E+01  7.317E-01  1.372E+00
   2    3    4     1     4    1.9360E+01  2.5762E+00   1.6784E+01  0.000E+00  0.000E+00  0.000E+00  1.07848E+03  1.068E+00  1.141E+01  6.332E-01  1.356E+00
   2    4    5     2     1    6.7841E+00  2.7166E+00   4.0674E+00  0.000E+00  0.000E+00  0.000E+00  1.07242E+03  4.829E-01  1.200E+01  7.800E-01  1.161E+00
   2    5    6     2     2    4.0674E+00  2.0056E+00   2.0618E+00  0.000E+00  0.000E+00  0.000E+00  1.06685E+03  3.427E-01  1.200E+01  6.000E-01  1.114E+00
   2    6    6     2     3    2.0618E+00  1.9116E+00   1.5021E-01  0.000E+00  0.000E+00  0.000E+00  1.06198E+03  1.859E-01  1.200E+01  6.000E-01  1.062E+00
   2    7    6     2     4    1.5021E-01  1.5021E-01   0.0000E+00  0.000E+00  0.000E+00  0.000E+00  1.05709E+03  1.263E-02  1.200E+01  6.000E-01  1.004E+00
   2    8    6     2     5    0.0000E+00  0.0000E+00   0.0000E+00  0.000E+00  0.000E+00  0.000E+00  1.05236E+03  0.000E+00  1.200E+01  6.000E-01  1.000E+00
   2    3    5     3     1    1.0000E+01  2.8252E+00   7.1748E+00  0.000E+00  0.000E+00  0.000E+00  1.07555E+03  1.909E+00  9.636E+00  7.227E-01  1.955E+00
   2    3    6     3     2    7.1748E+00  2.4905E+00   4.6843E+00  0.000E+00  0.000E+00  0.000E+00  1.07264E+03  1.727E+00  8.909E+00  6.682E-01  1.864E+00
   2    3    7     3     3    4.6843E+00  1.9718E+00   2.7125E+00  0.000E+00  0.000E+00  0.000E+00  1.06987E+03  1.555E+00  8.218E+00  5.547E-01  1.777E+00
   2    4    8     3     4    2.7125E+00  2.2567E+00   4.5579E-01  0.000E+00  0.000E+00  0.000E+00  1.06682E+03  1.364E+00  7.455E+00  6.709E-01  1.682E+00
   2    5    8     3     5    4.5579E-01  4.5579E-01   0.0000E+00  0.000E+00  0.000E+00  0.000E+00  1.06362E+03  0.000E+00  6.655E+00  4.991E-01  1.582E+00
   2    6    8     3     6    0.0000E+00  0.0000E+00   0.0000E+00  0.000E+00  0.000E+00  0.000E+00  1.06055E+03  0.000E+00  6.145E+00  1.844E-01  1.000E+00
   2    5   10     4     1    1.0000E+01  9.0525E-01   9.0947E+00  0.000E+00  0.000E+00  0.000E+00  1.07835E+03  6.210E-01  1.000E+01  2.500E-01  1.207E+00
   2    5    9     4     2    9.0947E+00  1.7835E+00   7.3113E+00  0.000E+00  0.000E+00  0.000E+00  1.07148E+03  5.670E-01  1.000E+01  5.000E-01  1.189E+00
   2    6    8     4     3    7.3113E+00  1.2257E+00   6.0855E+00  0.000E+00  0.000E+00  0.000E+00  1.06368E+03  5.021E-01  1.000E+01  3.500E-01  1.167E+00
   2    6    8     5     1    6.0855E+00  1.4716E+00   4.6139E+00  0.000E+00  0.000E+00  0.000E+00  1.05854E+03  5.396E-01  1.039E+01  4.158E-01  1.180E+00
   2    7    7     5     2    4.6139E+00  1.4897E+00   3.1242E+00  0.000E+00  0.000E+00  0.000E+00  1.05398E+03  4.817E-01  8.557E+00  4.279E-01  1.161E+00
   2    8    7     5     3    3.1242E+00  8.2855E-01   2.2957E+00  0.000E+00  0.000E+00  0.000E+00  1.04968E+03  4.253E-01  6.911E+00  2.419E-01  1.142E+00
   2    8    6     5     4    2.2957E+00  4.9455E-01   1.8011E+00  0.000E+00  0.000E+00  0.000E+00  1.04664E+03  3.856E-01  5.843E+00  1.461E-01  1.129E+00
   2    9    6     6     1    1.8011E+00  1.8011E+00   0.0000E+00  0.000E+00  0.000E+00  0.000E+00  1.04278E+03  5.669E-02  1.200E+01  6.000E-01  1.019E+00
   2   10    7     6     2    0.0000E+00  0.0000E+00   0.0000E+00  0.000E+00  0.000E+00  0.000E+00  1.03818E+03  0.000E+00  1.200E+01  6.000E-01  1.000E+00
   2   11    7     6     3    0.0000E+00  0.0000E+00   0.0000E+00  0.000E+00  0.000E+00  0.000E+00  1.03364E+03  0.000E+00  1.200E+01  6.000E-01  1.000E+00
   2   12    7     6     4    0.0000E+00  0.0000E+00   0.0000E+00  0.000E+00  0.000E+00  0.000E+00  1.02909E+03  0.000E+00  1.200E+01  6.000E-01  5.998E-01
   2   13    7     6     5    0.0000E+00 -7.2162E-01   7.2162E-01  0.000E+00  0.000E+00  0.000E+00  1.02601E+03  9.601E-02  1.200E+01  2.400E-01 -1.002E+00
   2   14    9     7     1    1.5000E+02  3.0633E+00   1.4694E+02  0.000E+00  0.000E+00  0.000E+00  1.03986E+03  2.283E+00  5.527E+01  5.591E+00  1.826E-01
   2   13    8     7     2    1.4694E+02  4.2102E+00   1.4273E+02  0.000E+00  0.000E+00  0.000E+00  1.03476E+03  2.264E+00  5.519E+01  6.139E+00  2.286E-01
   2   13    7     7     3    1.4273E+02  3.6212E+00   1.3911E+02  0.000E+00  0.000E+00  0.000E+00  1.02966E+03  2.243E+00  5.509E+01  5.571E+00  2.167E-01
   2   13    6     8     1    1.3983E+02  1.7240E+00   1.3810E+02  0.000E+00  0.000E+00  0.000E+00  1.02461E+03  2.737E+00  3.969E+01  4.045E+00  1.421E-01
   2   13    5     8     2    1.3810E+02 -1.4658E+00   1.3957E+02  0.000E+00  0.000E+00  0.000E+00  1.01836E+03  2.736E+00  3.968E+01  4.043E+00 -1.208E-01
   2   13    4     8     3    1.3957E+02 -4.5010E+00   1.4407E+02  0.000E+00  0.000E+00  0.000E+00  1.01213E+03  2.758E+00  3.999E+01  4.076E+00 -3.681E-01
   2   13    3     8     4    1.4407E+02 -5.2628E+00   1.4933E+02  0.000E+00  0.000E+00  0.000E+00  1.00592E+03  2.793E+00  4.051E+01  4.128E+00 -4.250E-01
   2   13    2     8     5    1.4933E+02 -3.2311E+00   1.5256E+02  0.000E+00  0.000E+00  0.000E+00  9.99698E+02  2.824E+00  4.094E+01  4.172E+00 -2.582E-01
   2   13    1     8     6    1.5256E+02 -2.0778E+00   1.5464E+02  0.000E+00  0.000E+00  0.000E+00  9.94717E+02  2.842E+00  4.121E+01  2.520E+00 -2.749E-01
   2    4    5     9     1    0.0000E+00  0.0000E+00   0.0000E+00  0.000E+00  0.000E+00  0.000E+00  1.06000E+03  0.000E+00  2.000E+01  2.000E-03  1.000E+00
   2    4    5    10     1    0.0000E+00  0.0000E+00   0.0000E+00  0.000E+00  0.000E+00  0.000E+00  1.08000E+03  0.000E+00  2.000E+01  2.000E-03  1.000E+00



 ..........LAKE  1 IS DRY..........

     SECTIONS OF THE LAKE BOTTOM HAVE BECOME DRY.  THE DRYSECTIONS
     LIE ABOVE THE FOLLOWING  1 AQUIFER CELLS (LAYER,ROW,COLUMN):
     (  2,  4,  5)  (

 PERIOD     1     TIME STEP     1     TIME STEP LENGTH  2.6280E+06
 PERIOD TIME  2.6280E+06     TOTAL SIMULATION TIME  2.6280E+06


                 HYDROLOGIC BUDGET SUMMARIES FOR SIMULATED LAKES
     (ALL FLUID FLUXES ARE VOLUMES ADDED TO THE LAKE DURING PRESENT TIME STEP)
     ----------------------------------------------------------------------------------------
 LAKE    STAGE         VOLUME     VOL. CHANGE      PRECIP     EVAPORATION    SPECIFIED RUNOFF     COMPUTED RUNOFF    TOTAL RUNOFF
   1  1.074500E+03  0.000000E+00     N/A (SS)   0.000000E+00  0.000000E+00   0.000000E+00          0.000000E+00      0.000000E+00

            GROUND WATER            SURFACE WATER        WATER          UZF INFIL.
 LAKE    INFLOW     OUTFLOW      INFLOW     OUTFLOW       USE        FROM LAKE
   1  0.0000E+00  0.0000E+00  0.0000E+00  0.0000E+00  0.0000E+00       0.0000E+00

      CONNECTED LAKE   TIME-STEP         STAGE-CHANGE          PERCENT
 LAKE    INFLUX      SURFACE AREA   TIME STEP  CUMULATIVE    DISCREPANCY
   1   0.0000E+00     0.0000E+00     N/A (SS)   N/A (SS)        0.000
 --------------------------------------------------------------------------------



            CUMULATIVE HYDROLOGIC BUDGET SUMMARIES FOR SIMULATED LAKES
     (ALL FLUID FLUXES ARE SUMS OF VOLUMES ADDED TO THE LAKE SINCE INITIAL TIME)
     ---------------------------------------------------------------------------
 LAKE       PRECIP       EVAP     SPECIFIED RUNOFF   COMPUTED RUNOFF   TOTAL RUNOFF
   1     0.0000E+00  0.0000E+00       0.0000E+00       0.0000E+00       0.0000E+00

            GROUND WATER            SURFACE WATER       UZF INFIL.
 LAKE    INFLOW     OUTFLOW      INFLOW     OUTFLOW     FROM LAKE
   1  0.0000E+00  0.0000E+00  0.0000E+00  0.0000E+00    0.0000E+00

         WATER    CONNECTED LAKE   CHANGE       PERCENT
 LAKE     USE         INFLUX       IN VOL.    DISCREPANCY
   1   0.0000E+00   0.0000E+00    N/A (SS)       0.000
 --------------------------------------------------------------------------------

 UBDSV3 SAVING "           GW ET" ON UNIT  61 AT TIME STEP     1, STRESS PERIOD   1
 UBDSV3 SAVING "    UZF RECHARGE" ON UNIT  61 AT TIME STEP     1, STRESS PERIOD   1
 UBDSV3 SAVING " SURFACE LEAKAGE" ON UNIT  61 AT TIME STEP     1, STRESS PERIOD   1
 UBDSV3 SAVING "       HORT+DUNN" ON UNIT  61 AT TIME STEP     1, STRESS PERIOD   1
 UBDSV3 SAVING "  STORAGE CHANGE" ON UNIT  61 AT TIME STEP     1, STRESS PERIOD   1


UNSATURATED ZONE PACKAGE VOLUMETRIC BUDGET FOR  TIME STEP     1 STRESS PERIOD    1
  ------------------------------------------------------------------------------



     CUMULATIVE VOLUMES      L**3       RATES FOR THIS TIME STEP      L**3/T
     ------------------                 ------------------------

           IN:                                      IN:
           ---                                      ---
        INFILTRATION =     2220660.0000          INFILTRATION =           0.8450

          OUT:                                     OUT:
          ----                                     ----
              UZF ET =       0.0000E+00                UZF ET =       0.0000E+00
        UZF RECHARGE =     2220660.0000          UZF RECHARGE =           0.8450

            IN - OUT =       0.0000E+00              IN - OUT =       0.0000E+00

          STORAGE:                                 STORAGE:
          --------                                 --------
      STORAGE CHANGE =       0.0000E+00        STORAGE CHANGE =       0.0000E+00

 PERCENT DISCREPANCY IS DIFFERENCE BETWEEN IN-OUT MINUS CHANGE IN STORAGE
 DIVIDED BY THE AVERAGE OF IN AND OUT TIMES 100

 PERCENT DISCREPANCY =           0.00     PERCENT DISCREPANCY =           0.00






1
  VOLUMETRIC BUDGET FOR ENTIRE MODEL AT END OF TIME STEP    1, STRESS PERIOD   1
  ------------------------------------------------------------------------------

     CUMULATIVE VOLUMES      L**3       RATES FOR THIS TIME STEP      L**3/T
     ------------------                 ------------------------

           IN:                                      IN:
           ---                                      ---
             STORAGE =           0.0000               STORAGE =           0.0000
       CONSTANT HEAD =           0.0000         CONSTANT HEAD =           0.0000
               WELLS =           0.0000                 WELLS =           0.0000
     HEAD DEP BOUNDS =      567638.0625       HEAD DEP BOUNDS =           0.2160
      STREAM LEAKAGE =   133575960.0000        STREAM LEAKAGE =          50.8280
       LAKE  SEEPAGE =           0.0000         LAKE  SEEPAGE =           0.0000
        UZF RECHARGE =     2220658.7500          UZF RECHARGE =           0.8450
               GW ET =           0.0000                 GW ET =           0.0000
     SURFACE LEAKAGE =           0.0000       SURFACE LEAKAGE =           0.0000

            TOTAL IN =   136364256.0000              TOTAL IN =          51.8890

          OUT:                                     OUT:
          ----                                     ----
             STORAGE =           0.0000               STORAGE =           0.0000
       CONSTANT HEAD =           0.0000         CONSTANT HEAD =           0.0000
               WELLS =    52560000.0000                 WELLS =          20.0000
     HEAD DEP BOUNDS =      753140.6875       HEAD DEP BOUNDS =           0.2866
      STREAM LEAKAGE =    45359796.0000        STREAM LEAKAGE =          17.2602
       LAKE  SEEPAGE =           0.0000         LAKE  SEEPAGE =           0.0000
        UZF RECHARGE =           0.0000          UZF RECHARGE =           0.0000
               GW ET =    37692156.0000                 GW ET =          14.3425
     SURFACE LEAKAGE =           0.0000       SURFACE LEAKAGE =           0.0000

           TOTAL OUT =   136365088.0000             TOTAL OUT =          51.8893

            IN - OUT =        -832.0000              IN - OUT =      -3.1662E-04

 PERCENT DISCREPANCY =          -0.00     PERCENT DISCREPANCY =          -0.00






         TIME SUMMARY AT END OF TIME STEP    1 IN STRESS PERIOD    1
                    SECONDS     MINUTES      HOURS       DAYS        YEARS
                    -----------------------------------------------------------
   TIME STEP LENGTH 2.62800E+06  43800.      730.00      30.417     8.32763E-02
 STRESS PERIOD TIME 2.62800E+06  43800.      730.00      30.417     8.32763E-02
         TOTAL TIME 2.62800E+06  43800.      730.00      30.417     8.32763E-02
1
1
                            STRESS PERIOD NO.    2, LENGTH =   2628000.    
                            -----------------------------------------------

                              NUMBER OF TIME STEPS =    15

                               MULTIPLIER FOR DELT =     1.000

                            INITIAL TIME STEP SIZE =   175200.0    

 WELL NO.  LAYER   ROW   COL   STRESS RATE         
 --------------------------------------------------
      1      2      6      4      -2.000    
      2      2      6      5      -2.000    
      3      2      7      4      -2.000    
      4      2      7      5      -2.000    
      5      2      8      4      -2.000    
      6      2      8      5      -2.000    
      7      2      9      4      -2.000    
      8      2      9      5      -2.000    
      9      2     10      4      -2.000    
     10      2     10      5      -2.000    

     10 WELLS

 REUSING NON-PARAMETER GHB CELLS FROM LAST STRESS PERIOD

      2 GHB CELLS

 REUSING STREAM SEGMENT DATA FROM LAST STRESS PERIOD



            AREAL INFILTRATION RATE
 READING ON UNIT   19 WITH FORMAT: (10F4.0)            

            1           2           3           4           5           6           7           8           9          10
 ........................................................................................................................
   1   8.0000E-09  1.6000E-08   0.000       0.000       0.000       0.000       0.000       0.000       0.000       0.000    
   2   1.6000E-08  8.0000E-09  1.6000E-08   0.000       0.000      6.4000E-08  6.4000E-08  4.0000E-08   0.000       0.000    
   3    0.000      4.0000E-08  8.0000E-09  8.0000E-09  6.4000E-08  6.4000E-08  4.0000E-08  4.0000E-08   0.000       0.000    
   4   6.4000E-08  4.0000E-08  8.0000E-09  8.0000E-09  8.0000E-09  8.0000E-09  8.0000E-09  8.0000E-09  1.6000E-08   0.000    
   5   6.4000E-08  4.0000E-08  8.0000E-09  8.0000E-09  8.0000E-09  8.0000E-09  8.0000E-09  8.0000E-09  8.0000E-09  8.0000E-09
   6   6.4000E-08  4.0000E-08  4.0000E-08  1.6000E-08  1.6000E-08  8.0000E-09  8.0000E-09  8.0000E-09  8.0000E-09  4.0000E-08
   7   6.4000E-08  4.0000E-08  4.0000E-08  1.6000E-08  1.6000E-08  8.0000E-09  8.0000E-09  1.6000E-08  1.6000E-08   0.000    
   8    0.000      4.0000E-08  4.0000E-08  1.6000E-08  1.6000E-08  8.0000E-09  8.0000E-09  1.6000E-08  4.0000E-08   0.000    
   9    0.000      4.0000E-08  4.0000E-08  1.6000E-08  1.6000E-08  8.0000E-09  8.0000E-09  1.6000E-08  4.0000E-08   0.000    
  10    0.000      4.0000E-08  4.0000E-08  1.6000E-08  1.6000E-08  8.0000E-09  8.0000E-09  1.6000E-08  4.0000E-08  6.4000E-08
  11    0.000      8.0000E-09  8.0000E-09  8.0000E-09  8.0000E-09  8.0000E-09  8.0000E-09  1.6000E-08  4.0000E-08   0.000    
  12   8.0000E-09  8.0000E-09  8.0000E-09  8.0000E-09  8.0000E-09  8.0000E-09  8.0000E-09  8.0000E-09  1.6000E-08   0.000    
  13   8.0000E-09  8.0000E-09  1.6000E-08  1.6000E-08  1.6000E-08  1.6000E-08  1.6000E-08  8.0000E-09  8.0000E-09   0.000    
  14    0.000      1.6000E-08  4.0000E-08  4.0000E-08  4.0000E-08  4.0000E-08  4.0000E-08  1.6000E-08  8.0000E-09   0.000    
  15    0.000       0.000      6.4000E-08  6.4000E-08  6.4000E-08  6.4000E-08   0.000       0.000       0.000       0.000    

                  ET RATE =  5.000000E-08

 USING ET EXTINCTION DEPTH FROM PREVIOUS STRESS PERIOD. CURRENT PERIOD IS:       2

 USING EXTINCTION WATER CONTENT FROM PREVIOUS STRESS PERIOD. CURRENT PERIOD IS:       2




 If any subsequent steady-state stress periods, min. and max. stages for each lake will be read in Record 9a.




 REUSING LAKE CONFIGURATION DATA FROM LAST STRESS PERIOD


 LAKE       PRECIP     EVAP     RUNOFF   WITHDRAW   BOTTOM     AREA
----------------------------------------------------------------------
   1     0.000E+00 4.000E-08 0.000E+00  0.000E+00 1.074E+03 2.500E+07




         C               INTERFACE CONDUCTANCES BETWEEN LAKE AND AQUIFER CELLS
   L     O          (IF TYPE = 6, CONDUCTANCE (L^2/T) IS BETWEEN AQUIFER CELL AND OVERLYING LAKE CELL.)
   A     L  L  T    (IF TYPE = 1 TO 4, CONDUCTANCES ARE PER UNIT SATURATED THICKNESS (L/T).)
   Y  R  U  A  Y
   E  O  M  K  P                        LAKEBED      C O N D U C T A N C E S
   R  W  N  E  E     DELTA Y   DELTA X  LEAKANCE   LAKEBED   AQUIFER  COMBINED
 _______________________________________________________________________________
   1  4  4  1  2    5.00E+03  5.00E+03  5.00E-02  2.50E+02  6.00E-03  6.00E-03
   1  3  5  1  3    5.00E+03  5.00E+03  5.00E-02  2.50E+02  1.20E-03  1.20E-03
   2  4  5  1  6    5.00E+03  5.00E+03  5.00E-02  1.25E+06  9.42E+00  9.42E+00
   1  5  5  1  4    5.00E+03  5.00E+03  5.00E-02  2.50E+02  6.00E-03  6.00E-03
   1  4  6  1  1    5.00E+03  5.00E+03  5.00E-02  2.50E+02  6.00E-03  6.00E-03
      LAKE     INFLOWING STREAM SEGMENT
         1                  9

 MAXIMUM NUMBER OF STREAMS INFLOWING TO A LAKE IS    1

      LAKE     OUTFLOWING STREAM SEGMENT
         1                 10

 MAXIMUM NUMBER OF STREAMS OUTFLOWING FROM A LAKE IS    1

 
 SOLVING FOR HEAD 
                                                   Max.-Head-Change                         Max.-Flux-Residual
  Residual-Control   Outer-Iter.   Inner-Iter.     Column Row Layer    Maximum-Head-Change  Column Row Layer    Maximum-Flux-Residual          L2-NORM 
          0                 1           2             8   12     2       0.6663137183E-01       6    5    2        -0.1952241606E+01      0.5743133797E+01
          0                 2           2             6    5     2       0.4497892488E-02       6    5    2         0.1372818928E+00      0.2033205844E+00
          0                 3           1             6    5     2      -0.2599361412E-03       6    5    2        -0.8238241907E-02      0.1139929602E-01

    ------------------------------------------------
       NWT REQUIRED            3 OUTER ITERATIONS 
       AND A TOTAL OF          5 INNER ITERATIONS.
    ------------------------------------------------

 OUTPUT CONTROL WAS SPECIFIED FOR A NONEXISTENT TIME STEP
 OR OUTPUT CONTROL DATA ARE NOT ENTERED IN ASCENDING ORDER
 OUTPUT CONTROL STRESS PERIOD    1   TIME STEP    5
 MODEL STRESS PERIOD    2   TIME STEP    1
 APPLYING THE SPECIFIED OUTPUT CONTROL TO THE CURRENT TIME STEP

 OUTPUT CONTROL FOR STRESS PERIOD    2   TIME STEP    1
    PRINT BUDGET
    SAVE BUDGET

            WELLS   PERIOD    2   STEP   1
 WELL      1   LAYER   2   ROW     6   COL     4   RATE    -2.00000    
 WELL      2   LAYER   2   ROW     6   COL     5   RATE    -2.00000    
 WELL      3   LAYER   2   ROW     7   COL     4   RATE    -2.00000    
 WELL      4   LAYER   2   ROW     7   COL     5   RATE    -2.00000    
 WELL      5   LAYER   2   ROW     8   COL     4   RATE    -2.00000    
 WELL      6   LAYER   2   ROW     8   COL     5   RATE    -2.00000    
 WELL      7   LAYER   2   ROW     9   COL     4   RATE    -2.00000    
 WELL      8   LAYER   2   ROW     9   COL     5   RATE    -2.00000    
 WELL      9   LAYER   2   ROW    10   COL     4   RATE    -2.00000    
 WELL     10   LAYER   2   ROW    10   COL     5   RATE    -2.00000    

  HEAD DEP BOUNDS   PERIOD    2   STEP     1
 BOUNDARY      1   LAYER   2   ROW    13   COL     1   RATE   -0.286756    
 BOUNDARY      2   LAYER   2   ROW    14   COL     9   RATE    0.215638    



 STREAM LISTING     PERIOD      2   STEP        1

 LAYER ROW COL. STREAM  RCH.  FLOW INTO     FLOW TO   FLOW OUT OF   OVRLND.     DIRECT     STREAM       STREAM     STREAM     STREAM   STREAMBED  STREAMBED
                SEG.NO.  NO.  STRM. RCH.    AQUIFER    STRM. RCH.    RUNOFF     PRECIP       ET          HEAD       DEPTH      WIDTH   CONDCTNC.   GRADIENT

   2    1    1     1     1    2.2000E+01  1.8299E+00   2.0170E+01  0.000E+00  0.000E+00  0.000E+00  1.09417E+03  1.118E+00  1.224E+01  5.510E-01  1.107E+00
   2    2    2     1     2    2.0170E+01  3.2954E+00   1.6875E+01  0.000E+00  0.000E+00  0.000E+00  1.08913E+03  1.076E+00  1.155E+01  8.085E-01  1.359E+00
   2    3    3     1     3    1.6875E+01  2.5597E+00   1.4315E+01  0.000E+00  0.000E+00  0.000E+00  1.08344E+03  1.024E+00  1.060E+01  6.362E-01  1.341E+00
   2    3    4     1     4    1.4315E+01  2.1565E+00   1.2158E+01  0.000E+00  0.000E+00  0.000E+00  1.07838E+03  9.761E-01  9.772E+00  5.424E-01  1.325E+00
   2    4    5     2     1    2.1585E+00  2.1585E+00   0.0000E+00  0.000E+00  0.000E+00  0.000E+00  1.07200E+03  6.249E-02  1.200E+01  7.800E-01  1.021E+00
   2    5    6     2     2    0.0000E+00  0.0000E+00   0.0000E+00  0.000E+00  0.000E+00  0.000E+00  1.06651E+03  0.000E+00  1.200E+01  6.000E-01  1.000E+00
   2    6    6     2     3    0.0000E+00  0.0000E+00   0.0000E+00  0.000E+00  0.000E+00  0.000E+00  1.06179E+03  0.000E+00  1.200E+01  6.000E-01  1.000E+00
   2    7    6     2     4    0.0000E+00  0.0000E+00   0.0000E+00  0.000E+00  0.000E+00  0.000E+00  1.05708E+03  0.000E+00  1.200E+01  6.000E-01  1.000E+00
   2    8    6     2     5    0.0000E+00  0.0000E+00   0.0000E+00  0.000E+00  0.000E+00  0.000E+00  1.05236E+03  0.000E+00  1.200E+01  6.000E-01  1.000E+00
   2    3    5     3     1    1.0000E+01  2.8252E+00   7.1748E+00  0.000E+00  0.000E+00  0.000E+00  1.07555E+03  1.909E+00  9.636E+00  7.227E-01  1.955E+00
   2    3    6     3     2    7.1748E+00  2.4905E+00   4.6843E+00  0.000E+00  0.000E+00  0.000E+00  1.07264E+03  1.727E+00  8.909E+00  6.682E-01  1.864E+00
   2    3    7     3     3    4.6843E+00  1.9718E+00   2.7125E+00  0.000E+00  0.000E+00  0.000E+00  1.06987E+03  1.555E+00  8.218E+00  5.547E-01  1.777E+00
   2    4    8     3     4    2.7125E+00  2.2567E+00   4.5579E-01  0.000E+00  0.000E+00  0.000E+00  1.06682E+03  1.364E+00  7.455E+00  6.709E-01  1.682E+00
   2    5    8     3     5    4.5579E-01  4.5579E-01   0.0000E+00  0.000E+00  0.000E+00  0.000E+00  1.06362E+03  0.000E+00  6.655E+00  4.991E-01  1.582E+00
   2    6    8     3     6    0.0000E+00  0.0000E+00   0.0000E+00  0.000E+00  0.000E+00  0.000E+00  1.06055E+03  0.000E+00  6.145E+00  1.844E-01  1.000E+00
   2    5   10     4     1    1.0000E+01  9.0525E-01   9.0947E+00  0.000E+00  0.000E+00  0.000E+00  1.07835E+03  6.210E-01  1.000E+01  2.500E-01  1.207E+00
   2    5    9     4     2    9.0947E+00  1.7835E+00   7.3113E+00  0.000E+00  0.000E+00  0.000E+00  1.07148E+03  5.670E-01  1.000E+01  5.000E-01  1.189E+00
   2    6    8     4     3    7.3113E+00  1.2257E+00   6.0855E+00  0.000E+00  0.000E+00  0.000E+00  1.06368E+03  5.021E-01  1.000E+01  3.500E-01  1.167E+00
   2    6    8     5     1    6.0855E+00  1.4716E+00   4.6139E+00  0.000E+00  0.000E+00  0.000E+00  1.05854E+03  5.396E-01  1.039E+01  4.158E-01  1.180E+00
   2    7    7     5     2    4.6139E+00  1.4897E+00   3.1242E+00  0.000E+00  0.000E+00  0.000E+00  1.05398E+03  4.817E-01  8.557E+00  4.279E-01  1.161E+00
   2    8    7     5     3    3.1242E+00  8.2855E-01   2.2957E+00  0.000E+00  0.000E+00  0.000E+00  1.04968E+03  4.253E-01  6.911E+00  2.419E-01  1.142E+00
   2    8    6     5     4    2.2957E+00  4.9455E-01   1.8011E+00  0.000E+00  0.000E+00  0.000E+00  1.04664E+03  3.856E-01  5.843E+00  1.461E-01  1.129E+00
   2    9    6     6     1    1.8011E+00  1.8011E+00   0.0000E+00  0.000E+00  0.000E+00  0.000E+00  1.04278E+03  5.669E-02  1.200E+01  6.000E-01  1.019E+00
   2   10    7     6     2    0.0000E+00  0.0000E+00   0.0000E+00  0.000E+00  0.000E+00  0.000E+00  1.03818E+03  0.000E+00  1.200E+01  6.000E-01  1.000E+00
   2   11    7     6     3    0.0000E+00  0.0000E+00   0.0000E+00  0.000E+00  0.000E+00  0.000E+00  1.03364E+03  0.000E+00  1.200E+01  6.000E-01  1.000E+00
   2   12    7     6     4    0.0000E+00  0.0000E+00   0.0000E+00  0.000E+00  0.000E+00  0.000E+00  1.02909E+03  0.000E+00  1.200E+01  6.000E-01  5.960E-01
   2   13    7     6     5    0.0000E+00 -7.2331E-01   7.2331E-01  0.000E+00  0.000E+00  0.000E+00  1.02601E+03  9.615E-02  1.200E+01  2.400E-01 -1.005E+00
   2   14    9     7     1    1.5000E+02  3.0115E+00   1.4699E+02  0.000E+00  0.000E+00  0.000E+00  1.03986E+03  2.283E+00  5.527E+01  5.591E+00  1.795E-01
   2   13    8     7     2    1.4699E+02  4.1590E+00   1.4283E+02  0.000E+00  0.000E+00  0.000E+00  1.03476E+03  2.264E+00  5.519E+01  6.140E+00  2.258E-01
   2   13    7     7     3    1.4283E+02  3.5851E+00   1.3924E+02  0.000E+00  0.000E+00  0.000E+00  1.02966E+03  2.243E+00  5.509E+01  5.571E+00  2.145E-01
   2   13    6     8     1    1.3997E+02  1.6993E+00   1.3827E+02  0.000E+00  0.000E+00  0.000E+00  1.02461E+03  2.738E+00  3.971E+01  4.046E+00  1.400E-01
   2   13    5     8     2    1.3827E+02 -1.4786E+00   1.3975E+02  0.000E+00  0.000E+00  0.000E+00  1.01836E+03  2.738E+00  3.969E+01  4.045E+00 -1.218E-01
   2   13    4     8     3    1.3975E+02 -4.5152E+00   1.4426E+02  0.000E+00  0.000E+00  0.000E+00  1.01213E+03  2.760E+00  4.001E+01  4.078E+00 -3.691E-01
   2   13    3     8     4    1.4426E+02 -5.2724E+00   1.4953E+02  0.000E+00  0.000E+00  0.000E+00  1.00592E+03  2.795E+00  4.053E+01  4.130E+00 -4.256E-01
   2   13    2     8     5    1.4953E+02 -3.2611E+00   1.5280E+02  0.000E+00  0.000E+00  0.000E+00  9.99700E+02  2.825E+00  4.096E+01  4.174E+00 -2.604E-01
   2   13    1     8     6    1.5280E+02 -2.0863E+00   1.5488E+02  0.000E+00  0.000E+00  0.000E+00  9.94719E+02  2.844E+00  4.123E+01  2.521E+00 -2.758E-01
   2    4    5     9     1    0.0000E+00  0.0000E+00   0.0000E+00  0.000E+00  0.000E+00  0.000E+00  1.06000E+03  0.000E+00  2.000E+01  2.000E-03  1.000E+00
   2    4    5    10     1    0.0000E+00  0.0000E+00   0.0000E+00  0.000E+00  0.000E+00  0.000E+00  1.08000E+03  0.000E+00  2.000E+01  2.000E-03  1.000E+00



 ..........LAKE  1 IS DRY..........

     SECTIONS OF THE LAKE BOTTOM HAVE BECOME DRY.  THE DRYSECTIONS
     LIE ABOVE THE FOLLOWING  1 AQUIFER CELLS (LAYER,ROW,COLUMN):
     (  2,  4,  5)  (

 PERIOD     2     TIME STEP     1     TIME STEP LENGTH  1.7520E+05
 PERIOD TIME  1.7520E+05     TOTAL SIMULATION TIME  2.8032E+06


                 HYDROLOGIC BUDGET SUMMARIES FOR SIMULATED LAKES
     (ALL FLUID FLUXES ARE VOLUMES ADDED TO THE LAKE DURING PRESENT TIME STEP)
     ----------------------------------------------------------------------------------------
 LAKE    STAGE         VOLUME     VOL. CHANGE      PRECIP     EVAPORATION    SPECIFIED RUNOFF     COMPUTED RUNOFF    TOTAL RUNOFF
   1  1.074500E+03  0.000000E+00  0.000000E+00  0.000000E+00  0.000000E+00   0.000000E+00          0.000000E+00      0.000000E+00

            GROUND WATER            SURFACE WATER        WATER          UZF INFIL.
 LAKE    INFLOW     OUTFLOW      INFLOW     OUTFLOW       USE        FROM LAKE
   1  0.0000E+00  0.0000E+00  0.0000E+00  0.0000E+00  0.0000E+00       0.0000E+00

      CONNECTED LAKE   TIME-STEP         STAGE-CHANGE          PERCENT
 LAKE    INFLUX      SURFACE AREA   TIME STEP  CUMULATIVE    DISCREPANCY
   1   0.0000E+00     0.0000E+00   0.0000E+00  0.0000E+00       0.000
 --------------------------------------------------------------------------------



            CUMULATIVE HYDROLOGIC BUDGET SUMMARIES FOR SIMULATED LAKES
     (ALL FLUID FLUXES ARE SUMS OF VOLUMES ADDED TO THE LAKE SINCE INITIAL TIME)
     ---------------------------------------------------------------------------
 LAKE       PRECIP       EVAP     SPECIFIED RUNOFF   COMPUTED RUNOFF   TOTAL RUNOFF
   1     0.0000E+00  0.0000E+00       0.0000E+00       0.0000E+00       0.0000E+00

            GROUND WATER            SURFACE WATER       UZF INFIL.
 LAKE    INFLOW     OUTFLOW      INFLOW     OUTFLOW     FROM LAKE
   1  0.0000E+00  0.0000E+00  0.0000E+00  0.0000E+00    0.0000E+00

         WATER    CONNECTED LAKE   CHANGE       PERCENT
 LAKE     USE         INFLUX       IN VOL.    DISCREPANCY
   1   0.0000E+00   0.0000E+00   0.0000E+00      0.000
 --------------------------------------------------------------------------------

 UBDSV3 SAVING "           GW ET" ON UNIT  61 AT TIME STEP     1, STRESS PERIOD   2
 UBDSV3 SAVING "    UZF RECHARGE" ON UNIT  61 AT TIME STEP     1, STRESS PERIOD   2
 UBDSV3 SAVING " SURFACE LEAKAGE" ON UNIT  61 AT TIME STEP     1, STRESS PERIOD   2
 UBDSV3 SAVING "       HORT+DUNN" ON UNIT  61 AT TIME STEP     1, STRESS PERIOD   2
 UBDSV3 SAVING "  STORAGE CHANGE" ON UNIT  61 AT TIME STEP     1, STRESS PERIOD   2


UNSATURATED ZONE PACKAGE VOLUMETRIC BUDGET FOR  TIME STEP     1 STRESS PERIOD    2
  ------------------------------------------------------------------------------



     CUMULATIVE VOLUMES      L**3       RATES FOR THIS TIME STEP      L**3/T
     ------------------                 ------------------------

           IN:                                      IN:
           ---                                      ---
        INFILTRATION =    14064180.0000          INFILTRATION =          67.6000

          OUT:                                     OUT:
          ----                                     ----
              UZF ET =    22891432.3401                UZF ET =         130.6589
        UZF RECHARGE =    10019249.7080          UZF RECHARGE =          44.5125

            IN - OUT =   -18846502.0481              IN - OUT =        -107.5714

          STORAGE:                                 STORAGE:
          --------                                 --------
      STORAGE CHANGE =   -18841782.1208        STORAGE CHANGE =        -107.5444

 PERCENT DISCREPANCY IS DIFFERENCE BETWEEN IN-OUT MINUS CHANGE IN STORAGE
 DIVIDED BY THE AVERAGE OF IN AND OUT TIMES 100

 PERCENT DISCREPANCY =          -0.00     PERCENT DISCREPANCY =          -0.02






1
  VOLUMETRIC BUDGET FOR ENTIRE MODEL AT END OF TIME STEP    1, STRESS PERIOD   2
  ------------------------------------------------------------------------------

     CUMULATIVE VOLUMES      L**3       RATES FOR THIS TIME STEP      L**3/T
     ------------------                 ------------------------

           IN:                                      IN:
           ---                                      ---
             STORAGE =      937158.0000               STORAGE =           5.3491
       CONSTANT HEAD =           0.0000         CONSTANT HEAD =           0.0000
               WELLS =           0.0000                 WELLS =           0.0000
     HEAD DEP BOUNDS =      605417.9375       HEAD DEP BOUNDS =           0.2156
      STREAM LEAKAGE =   141364448.0000        STREAM LEAKAGE =          44.4548
       LAKE  SEEPAGE =           0.0000         LAKE  SEEPAGE =           0.0000
        UZF RECHARGE =    10019248.0000          UZF RECHARGE =          44.5125
               GW ET =           0.0000                 GW ET =           0.0000
     SURFACE LEAKAGE =           0.0000       SURFACE LEAKAGE =           0.0000

            TOTAL IN =   152926272.0000              TOTAL IN =          94.5320

          OUT:                                     OUT:
          ----                                     ----
             STORAGE =     8170436.5000               STORAGE =          46.6349
       CONSTANT HEAD =           0.0000         CONSTANT HEAD =           0.0000
               WELLS =    56064000.0000                 WELLS =          20.0000
     HEAD DEP BOUNDS =      803380.3125       HEAD DEP BOUNDS =           0.2868
      STREAM LEAKAGE =    48397216.0000        STREAM LEAKAGE =          17.3369
       LAKE  SEEPAGE =           0.0000         LAKE  SEEPAGE =           0.0000
        UZF RECHARGE =           0.0000          UZF RECHARGE =           0.0000
               GW ET =    39492012.0000                 GW ET =          10.2731
     SURFACE LEAKAGE =           0.0000       SURFACE LEAKAGE =           0.0000

           TOTAL OUT =   152927040.0000             TOTAL OUT =          94.5317

            IN - OUT =        -768.0000              IN - OUT =       3.5858E-04

 PERCENT DISCREPANCY =          -0.00     PERCENT DISCREPANCY =           0.00






         TIME SUMMARY AT END OF TIME STEP    1 IN STRESS PERIOD    2
                    SECONDS     MINUTES      HOURS       DAYS        YEARS
                    -----------------------------------------------------------
   TIME STEP LENGTH 1.75200E+05  2920.0      48.667      2.0278     5.55175E-03
 STRESS PERIOD TIME 1.75200E+05  2920.0      48.667      2.0278     5.55175E-03
         TOTAL TIME 2.80320E+06  46720.      778.67      32.444     8.88281E-02
1
 
 SOLVING FOR HEAD 
                                                   Max.-Head-Change                         Max.-Flux-Residual
  Residual-Control   Outer-Iter.   Inner-Iter.     Column Row Layer    Maximum-Head-Change  Column Row Layer    Maximum-Flux-Residual          L2-NORM 
          0                 1           2             6    5     2      -0.5975387175E-01       6    5    2        -0.1747743187E+01      0.5475388124E+01
          0                 2           2             6    5     2       0.4968437058E-02       6    5    2         0.1513274926E+00      0.2174618531E+00
          0                 3           1             6    5     2      -0.2864983715E-03       6    5    2        -0.9079730769E-02      0.1240452027E-01

    ------------------------------------------------
       NWT REQUIRED            3 OUTER ITERATIONS 
       AND A TOTAL OF          5 INNER ITERATIONS.
    ------------------------------------------------

 OUTPUT CONTROL WAS SPECIFIED FOR A NONEXISTENT TIME STEP
 OR OUTPUT CONTROL DATA ARE NOT ENTERED IN ASCENDING ORDER
 OUTPUT CONTROL STRESS PERIOD    1   TIME STEP   10
 MODEL STRESS PERIOD    2   TIME STEP    2
 APPLYING THE SPECIFIED OUTPUT CONTROL TO THE CURRENT TIME STEP

 OUTPUT CONTROL FOR STRESS PERIOD    2   TIME STEP    2
    PRINT BUDGET
    SAVE BUDGET

            WELLS   PERIOD    2   STEP   2
 WELL      1   LAYER   2   ROW     6   COL     4   RATE    -2.00000    
 WELL      2   LAYER   2   ROW     6   COL     5   RATE    -2.00000    
 WELL      3   LAYER   2   ROW     7   COL     4   RATE    -2.00000    
 WELL      4   LAYER   2   ROW     7   COL     5   RATE    -2.00000    
 WELL      5   LAYER   2   ROW     8   COL     4   RATE    -2.00000    
 WELL      6   LAYER   2   ROW     8   COL     5   RATE    -2.00000    
 WELL      7   LAYER   2   ROW     9   COL     4   RATE    -2.00000    
 WELL      8   LAYER   2   ROW     9   COL     5   RATE    -2.00000    
 WELL      9   LAYER   2   ROW    10   COL     4   RATE    -2.00000    
 WELL     10   LAYER   2   ROW    10   COL     5   RATE    -2.00000    

  HEAD DEP BOUNDS   PERIOD    2   STEP     2
 BOUNDARY      1   LAYER   2   ROW    13   COL     1   RATE   -0.286913    
 BOUNDARY      2   LAYER   2   ROW    14   COL     9   RATE    0.215349    



 STREAM LISTING     PERIOD      2   STEP        2

 LAYER ROW COL. STREAM  RCH.  FLOW INTO     FLOW TO   FLOW OUT OF   OVRLND.     DIRECT     STREAM       STREAM     STREAM     STREAM   STREAMBED  STREAMBED
                SEG.NO.  NO.  STRM. RCH.    AQUIFER    STRM. RCH.    RUNOFF     PRECIP       ET          HEAD       DEPTH      WIDTH   CONDCTNC.   GRADIENT

   2    1    1     1     1    2.2000E+01  1.8316E+00   2.0168E+01  0.000E+00  0.000E+00  0.000E+00  1.09417E+03  1.118E+00  1.224E+01  5.509E-01  1.108E+00
   2    2    2     1     2    2.0168E+01  3.2953E+00   1.6873E+01  0.000E+00  0.000E+00  0.000E+00  1.08913E+03  1.076E+00  1.155E+01  8.085E-01  1.359E+00
   2    3    3     1     3    1.6873E+01  2.5596E+00   1.4314E+01  0.000E+00  0.000E+00  0.000E+00  1.08344E+03  1.024E+00  1.060E+01  6.361E-01  1.341E+00
   2    3    4     1     4    1.4314E+01  2.1564E+00   1.2157E+01  0.000E+00  0.000E+00  0.000E+00  1.07838E+03  9.761E-01  9.772E+00  5.423E-01  1.325E+00
   2    4    5     2     1    2.1572E+00  2.1572E+00   0.0000E+00  0.000E+00  0.000E+00  0.000E+00  1.07200E+03  6.247E-02  1.200E+01  7.800E-01  1.021E+00
   2    5    6     2     2    0.0000E+00  0.0000E+00   0.0000E+00  0.000E+00  0.000E+00  0.000E+00  1.06651E+03  0.000E+00  1.200E+01  6.000E-01  1.000E+00
   2    6    6     2     3    0.0000E+00  0.0000E+00   0.0000E+00  0.000E+00  0.000E+00  0.000E+00  1.06179E+03  0.000E+00  1.200E+01  6.000E-01  1.000E+00
   2    7    6     2     4    0.0000E+00  0.0000E+00   0.0000E+00  0.000E+00  0.000E+00  0.000E+00  1.05708E+03  0.000E+00  1.200E+01  6.000E-01  1.000E+00
   2    8    6     2     5    0.0000E+00  0.0000E+00   0.0000E+00  0.000E+00  0.000E+00  0.000E+00  1.05236E+03  0.000E+00  1.200E+01  6.000E-01  1.000E+00
   2    3    5     3     1    1.0000E+01  2.8252E+00   7.1748E+00  0.000E+00  0.000E+00  0.000E+00  1.07555E+03  1.909E+00  9.636E+00  7.227E-01  1.955E+00
   2    3    6     3     2    7.1748E+00  2.4905E+00   4.6843E+00  0.000E+00  0.000E+00  0.000E+00  1.07264E+03  1.727E+00  8.909E+00  6.682E-01  1.864E+00
   2    3    7     3     3    4.6843E+00  1.9718E+00   2.7125E+00  0.000E+00  0.000E+00  0.000E+00  1.06987E+03  1.555E+00  8.218E+00  5.547E-01  1.777E+00
   2    4    8     3     4    2.7125E+00  2.2567E+00   4.5579E-01  0.000E+00  0.000E+00  0.000E+00  1.06682E+03  1.364E+00  7.455E+00  6.709E-01  1.682E+00
   2    5    8     3     5    4.5579E-01  4.5579E-01   0.0000E+00  0.000E+00  0.000E+00  0.000E+00  1.06362E+03  0.000E+00  6.655E+00  4.991E-01  1.582E+00
   2    6    8     3     6    0.0000E+00  0.0000E+00   0.0000E+00  0.000E+00  0.000E+00  0.000E+00  1.06055E+03  0.000E+00  6.145E+00  1.844E-01  1.000E+00
   2    5   10     4     1    1.0000E+01  9.0525E-01   9.0947E+00  0.000E+00  0.000E+00  0.000E+00  1.07835E+03  6.210E-01  1.000E+01  2.500E-01  1.207E+00
   2    5    9     4     2    9.0947E+00  1.7835E+00   7.3113E+00  0.000E+00  0.000E+00  0.000E+00  1.07148E+03  5.670E-01  1.000E+01  5.000E-01  1.189E+00
   2    6    8     4     3    7.3113E+00  1.2257E+00   6.0855E+00  0.000E+00  0.000E+00  0.000E+00  1.06368E+03  5.021E-01  1.000E+01  3.500E-01  1.167E+00
   2    6    8     5     1    6.0855E+00  1.4716E+00   4.6139E+00  0.000E+00  0.000E+00  0.000E+00  1.05854E+03  5.396E-01  1.039E+01  4.158E-01  1.180E+00
   2    7    7     5     2    4.6139E+00  1.4897E+00   3.1242E+00  0.000E+00  0.000E+00  0.000E+00  1.05398E+03  4.817E-01  8.557E+00  4.279E-01  1.161E+00
   2    8    7     5     3    3.1242E+00  8.2855E-01   2.2957E+00  0.000E+00  0.000E+00  0.000E+00  1.04968E+03  4.253E-01  6.911E+00  2.419E-01  1.142E+00
   2    8    6     5     4    2.2957E+00  4.9455E-01   1.8011E+00  0.000E+00  0.000E+00  0.000E+00  1.04664E+03  3.856E-01  5.843E+00  1.461E-01  1.129E+00
   2    9    6     6     1    1.8011E+00  1.8011E+00   0.0000E+00  0.000E+00  0.000E+00  0.000E+00  1.04278E+03  5.669E-02  1.200E+01  6.000E-01  1.019E+00
   2   10    7     6     2    0.0000E+00  0.0000E+00   0.0000E+00  0.000E+00  0.000E+00  0.000E+00  1.03818E+03  0.000E+00  1.200E+01  6.000E-01  1.000E+00
   2   11    7     6     3    0.0000E+00  0.0000E+00   0.0000E+00  0.000E+00  0.000E+00  0.000E+00  1.03364E+03  0.000E+00  1.200E+01  6.000E-01  1.000E+00
   2   12    7     6     4    0.0000E+00  0.0000E+00   0.0000E+00  0.000E+00  0.000E+00  0.000E+00  1.02909E+03  0.000E+00  1.200E+01  6.000E-01  5.923E-01
   2   13    7     6     5    0.0000E+00 -7.2474E-01   7.2474E-01  0.000E+00  0.000E+00  0.000E+00  1.02601E+03  9.626E-02  1.200E+01  2.400E-01 -1.007E+00
   2   14    9     7     1    1.5000E+02  2.9695E+00   1.4703E+02  0.000E+00  0.000E+00  0.000E+00  1.03986E+03  2.283E+00  5.528E+01  5.591E+00  1.770E-01
   2   13    8     7     2    1.4703E+02  4.1161E+00   1.4291E+02  0.000E+00  0.000E+00  0.000E+00  1.03476E+03  2.264E+00  5.519E+01  6.140E+00  2.235E-01
   2   13    7     7     3    1.4291E+02  3.5546E+00   1.3936E+02  0.000E+00  0.000E+00  0.000E+00  1.02966E+03  2.244E+00  5.510E+01  5.571E+00  2.127E-01
   2   13    6     8     1    1.4008E+02  1.6765E+00   1.3841E+02  0.000E+00  0.000E+00  0.000E+00  1.02461E+03  2.739E+00  3.972E+01  4.048E+00  1.381E-01
   2   13    5     8     2    1.3841E+02 -1.4922E+00   1.3990E+02  0.000E+00  0.000E+00  0.000E+00  1.01836E+03  2.739E+00  3.971E+01  4.047E+00 -1.229E-01
   2   13    4     8     3    1.3990E+02 -4.5633E+00   1.4446E+02  0.000E+00  0.000E+00  0.000E+00  1.01214E+03  2.761E+00  4.003E+01  4.079E+00 -3.729E-01
   2   13    3     8     4    1.4446E+02 -5.3229E+00   1.4979E+02  0.000E+00  0.000E+00  0.000E+00  1.00592E+03  2.796E+00  4.055E+01  4.132E+00 -4.294E-01
   2   13    2     8     5    1.4979E+02 -3.2863E+00   1.5307E+02  0.000E+00  0.000E+00  0.000E+00  9.99702E+02  2.827E+00  4.099E+01  4.177E+00 -2.623E-01
   2   13    1     8     6    1.5307E+02 -2.0932E+00   1.5517E+02  0.000E+00  0.000E+00  0.000E+00  9.94721E+02  2.846E+00  4.126E+01  2.523E+00 -2.766E-01
   2    4    5     9     1    0.0000E+00  0.0000E+00   0.0000E+00  0.000E+00  0.000E+00  0.000E+00  1.06000E+03  0.000E+00  2.000E+01  2.000E-03  1.000E+00
   2    4    5    10     1    0.0000E+00  0.0000E+00   0.0000E+00  0.000E+00  0.000E+00  0.000E+00  1.08000E+03  0.000E+00  2.000E+01  2.000E-03  1.000E+00



 ..........LAKE  1 IS DRY..........

     SECTIONS OF THE LAKE BOTTOM HAVE BECOME DRY.  THE DRYSECTIONS
     LIE ABOVE THE FOLLOWING  1 AQUIFER CELLS (LAYER,ROW,COLUMN):
     (  2,  4,  5)  (

 PERIOD     2     TIME STEP     2     TIME STEP LENGTH  1.7520E+05
 PERIOD TIME  3.5040E+05     TOTAL SIMULATION TIME  2.9784E+06


                 HYDROLOGIC BUDGET SUMMARIES FOR SIMULATED LAKES
     (ALL FLUID FLUXES ARE VOLUMES ADDED TO THE LAKE DURING PRESENT TIME STEP)
     ----------------------------------------------------------------------------------------
 LAKE    STAGE         VOLUME     VOL. CHANGE      PRECIP     EVAPORATION    SPECIFIED RUNOFF     COMPUTED RUNOFF    TOTAL RUNOFF
   1  1.074500E+03  0.000000E+00  0.000000E+00  0.000000E+00  0.000000E+00   0.000000E+00          0.000000E+00      0.000000E+00

            GROUND WATER            SURFACE WATER        WATER          UZF INFIL.
 LAKE    INFLOW     OUTFLOW      INFLOW     OUTFLOW       USE        FROM LAKE
   1  0.0000E+00  0.0000E+00  0.0000E+00  0.0000E+00  0.0000E+00       0.0000E+00

      CONNECTED LAKE   TIME-STEP         STAGE-CHANGE          PERCENT
 LAKE    INFLUX      SURFACE AREA   TIME STEP  CUMULATIVE    DISCREPANCY
   1   0.0000E+00     0.0000E+00   0.0000E+00  0.0000E+00       0.000
 --------------------------------------------------------------------------------



            CUMULATIVE HYDROLOGIC BUDGET SUMMARIES FOR SIMULATED LAKES
     (ALL FLUID FLUXES ARE SUMS OF VOLUMES ADDED TO THE LAKE SINCE INITIAL TIME)
     ---------------------------------------------------------------------------
 LAKE       PRECIP       EVAP     SPECIFIED RUNOFF   COMPUTED RUNOFF   TOTAL RUNOFF
   1     0.0000E+00  0.0000E+00       0.0000E+00       0.0000E+00       0.0000E+00

            GROUND WATER            SURFACE WATER       UZF INFIL.
 LAKE    INFLOW     OUTFLOW      INFLOW     OUTFLOW     FROM LAKE
   1  0.0000E+00  0.0000E+00  0.0000E+00  0.0000E+00    0.0000E+00

         WATER    CONNECTED LAKE   CHANGE       PERCENT
 LAKE     USE         INFLUX       IN VOL.    DISCREPANCY
   1   0.0000E+00   0.0000E+00   0.0000E+00      0.000
 --------------------------------------------------------------------------------

 UBDSV3 SAVING "           GW ET" ON UNIT  61 AT TIME STEP     2, STRESS PERIOD   2
 UBDSV3 SAVING "    UZF RECHARGE" ON UNIT  61 AT TIME STEP     2, STRESS PERIOD   2
 UBDSV3 SAVING " SURFACE LEAKAGE" ON UNIT  61 AT TIME STEP     2, STRESS PERIOD   2
 UBDSV3 SAVING "       HORT+DUNN" ON UNIT  61 AT TIME STEP     2, STRESS PERIOD   2
 UBDSV3 SAVING "  STORAGE CHANGE" ON UNIT  61 AT TIME STEP     2, STRESS PERIOD   2


UNSATURATED ZONE PACKAGE VOLUMETRIC BUDGET FOR  TIME STEP     2 STRESS PERIOD    2
  ------------------------------------------------------------------------------



     CUMULATIVE VOLUMES      L**3       RATES FOR THIS TIME STEP      L**3/T
     ------------------                 ------------------------

           IN:                                      IN:
           ---                                      ---
        INFILTRATION =    25907700.0000          INFILTRATION =          67.6000

          OUT:                                     OUT:
          ----                                     ----
              UZF ET =    45776651.1221                UZF ET =         130.6234
        UZF RECHARGE =    17746936.6768          UZF RECHARGE =          44.1078

            IN - OUT =   -37615887.7988              IN - OUT =        -107.1312

          STORAGE:                                 STORAGE:
          --------                                 --------
      STORAGE CHANGE =   -37605295.0387        STORAGE CHANGE =        -107.0977

 PERCENT DISCREPANCY IS DIFFERENCE BETWEEN IN-OUT MINUS CHANGE IN STORAGE
 DIVIDED BY THE AVERAGE OF IN AND OUT TIMES 100

 PERCENT DISCREPANCY =          -0.00     PERCENT DISCREPANCY =          -0.02






1
  VOLUMETRIC BUDGET FOR ENTIRE MODEL AT END OF TIME STEP    2, STRESS PERIOD   2
  ------------------------------------------------------------------------------

     CUMULATIVE VOLUMES      L**3       RATES FOR THIS TIME STEP      L**3/T
     ------------------                 ------------------------

           IN:                                      IN:
           ---                                      ---
             STORAGE =     1834326.0000               STORAGE =           5.1208
       CONSTANT HEAD =           0.0000         CONSTANT HEAD =           0.0000
               WELLS =           0.0000                 WELLS =           0.0000
     HEAD DEP BOUNDS =      643147.0625       HEAD DEP BOUNDS =           0.2153
      STREAM LEAKAGE =   149128736.0000        STREAM LEAKAGE =          44.3167
       LAKE  SEEPAGE =           0.0000         LAKE  SEEPAGE =           0.0000
        UZF RECHARGE =    17746934.0000          UZF RECHARGE =          44.1078
               GW ET =           0.0000                 GW ET =           0.0000
     SURFACE LEAKAGE =           0.0000       SURFACE LEAKAGE =           0.0000

            TOTAL IN =   169353136.0000              TOTAL IN =          93.7606

          OUT:                                     OUT:
          ----                                     ----
             STORAGE =    16175952.0000               STORAGE =          45.6936
       CONSTANT HEAD =           0.0000         CONSTANT HEAD =           0.0000
               WELLS =    59568000.0000                 WELLS =          20.0000
     HEAD DEP BOUNDS =      853647.4375       HEAD DEP BOUNDS =           0.2869
      STREAM LEAKAGE =    51460180.0000        STREAM LEAKAGE =          17.4827
       LAKE  SEEPAGE =           0.0000         LAKE  SEEPAGE =           0.0000
        UZF RECHARGE =           0.0000          UZF RECHARGE =           0.0000
               GW ET =    41296060.0000                 GW ET =          10.2971
     SURFACE LEAKAGE =           0.0000       SURFACE LEAKAGE =           0.0000

           TOTAL OUT =   169353840.0000             TOTAL OUT =          93.7603

            IN - OUT =        -704.0000              IN - OUT =       3.8147E-04

 PERCENT DISCREPANCY =          -0.00     PERCENT DISCREPANCY =           0.00






         TIME SUMMARY AT END OF TIME STEP    2 IN STRESS PERIOD    2
                    SECONDS     MINUTES      HOURS       DAYS        YEARS
                    -----------------------------------------------------------
   TIME STEP LENGTH 1.75200E+05  2920.0      48.667      2.0278     5.55175E-03
 STRESS PERIOD TIME 3.50400E+05  5840.0      97.333      4.0556     1.11035E-02
         TOTAL TIME 2.97840E+06  49640.      827.33      34.472     9.43798E-02
1
 
 SOLVING FOR HEAD 
                                                   Max.-Head-Change                         Max.-Flux-Residual
  Residual-Control   Outer-Iter.   Inner-Iter.     Column Row Layer    Maximum-Head-Change  Column Row Layer    Maximum-Flux-Residual          L2-NORM 
          0                 1           2             6    5     2      -0.5403724825E-01       6    5    2        -0.1574288568E+01      0.5236028136E+01
          0                 2           2             6    5     2       0.5152277921E-02       6    5    2         0.1566668737E+00      0.2225498525E+00
          0                 3           1             6    5     2      -0.2966081948E-03       6    5    2        -0.9400101311E-02      0.1274914159E-01

    ------------------------------------------------
       NWT REQUIRED            3 OUTER ITERATIONS 
       AND A TOTAL OF          5 INNER ITERATIONS.
    ------------------------------------------------

 OUTPUT CONTROL WAS SPECIFIED FOR A NONEXISTENT TIME STEP
 OR OUTPUT CONTROL DATA ARE NOT ENTERED IN ASCENDING ORDER
 OUTPUT CONTROL STRESS PERIOD    1   TIME STEP   15
 MODEL STRESS PERIOD    2   TIME STEP    3
 APPLYING THE SPECIFIED OUTPUT CONTROL TO THE CURRENT TIME STEP

 OUTPUT CONTROL FOR STRESS PERIOD    2   TIME STEP    3
    PRINT BUDGET
    PRINT HEAD FOR ALL LAYERS
    SAVE HEAD FOR ALL LAYERS
    SAVE BUDGET

            WELLS   PERIOD    2   STEP   3
 WELL      1   LAYER   2   ROW     6   COL     4   RATE    -2.00000    
 WELL      2   LAYER   2   ROW     6   COL     5   RATE    -2.00000    
 WELL      3   LAYER   2   ROW     7   COL     4   RATE    -2.00000    
 WELL      4   LAYER   2   ROW     7   COL     5   RATE    -2.00000    
 WELL      5   LAYER   2   ROW     8   COL     4   RATE    -2.00000    
 WELL      6   LAYER   2   ROW     8   COL     5   RATE    -2.00000    
 WELL      7   LAYER   2   ROW     9   COL     4   RATE    -2.00000    
 WELL      8   LAYER   2   ROW     9   COL     5   RATE    -2.00000    
 WELL      9   LAYER   2   ROW    10   COL     4   RATE    -2.00000    
 WELL     10   LAYER   2   ROW    10   COL     5   RATE    -2.00000    

  HEAD DEP BOUNDS   PERIOD    2   STEP     3
 BOUNDARY      1   LAYER   2   ROW    13   COL     1   RATE   -0.287056    
 BOUNDARY      2   LAYER   2   ROW    14   COL     9   RATE    0.215114    



 STREAM LISTING     PERIOD      2   STEP        3

 LAYER ROW COL. STREAM  RCH.  FLOW INTO     FLOW TO   FLOW OUT OF   OVRLND.     DIRECT     STREAM       STREAM     STREAM     STREAM   STREAMBED  STREAMBED
                SEG.NO.  NO.  STRM. RCH.    AQUIFER    STRM. RCH.    RUNOFF     PRECIP       ET          HEAD       DEPTH      WIDTH   CONDCTNC.   GRADIENT

   2    1    1     1     1    2.2000E+01  1.8332E+00   2.0167E+01  0.000E+00  0.000E+00  0.000E+00  1.09417E+03  1.118E+00  1.224E+01  5.509E-01  1.109E+00
   2    2    2     1     2    2.0167E+01  3.2951E+00   1.6872E+01  0.000E+00  0.000E+00  0.000E+00  1.08913E+03  1.076E+00  1.155E+01  8.085E-01  1.359E+00
   2    3    3     1     3    1.6872E+01  2.5594E+00   1.4312E+01  0.000E+00  0.000E+00  0.000E+00  1.08344E+03  1.024E+00  1.060E+01  6.361E-01  1.341E+00
   2    3    4     1     4    1.4312E+01  2.1563E+00   1.2156E+01  0.000E+00  0.000E+00  0.000E+00  1.07838E+03  9.761E-01  9.772E+00  5.423E-01  1.325E+00
   2    4    5     2     1    2.1559E+00  2.1559E+00   0.0000E+00  0.000E+00  0.000E+00  0.000E+00  1.07200E+03  6.245E-02  1.200E+01  7.800E-01  1.021E+00
   2    5    6     2     2    0.0000E+00  0.0000E+00   0.0000E+00  0.000E+00  0.000E+00  0.000E+00  1.06651E+03  0.000E+00  1.200E+01  6.000E-01  1.000E+00
   2    6    6     2     3    0.0000E+00  0.0000E+00   0.0000E+00  0.000E+00  0.000E+00  0.000E+00  1.06179E+03  0.000E+00  1.200E+01  6.000E-01  1.000E+00
   2    7    6     2     4    0.0000E+00  0.0000E+00   0.0000E+00  0.000E+00  0.000E+00  0.000E+00  1.05708E+03  0.000E+00  1.200E+01  6.000E-01  1.000E+00
   2    8    6     2     5    0.0000E+00  0.0000E+00   0.0000E+00  0.000E+00  0.000E+00  0.000E+00  1.05236E+03  0.000E+00  1.200E+01  6.000E-01  1.000E+00
   2    3    5     3     1    1.0000E+01  2.8252E+00   7.1748E+00  0.000E+00  0.000E+00  0.000E+00  1.07555E+03  1.909E+00  9.636E+00  7.227E-01  1.955E+00
   2    3    6     3     2    7.1748E+00  2.4905E+00   4.6843E+00  0.000E+00  0.000E+00  0.000E+00  1.07264E+03  1.727E+00  8.909E+00  6.682E-01  1.864E+00
   2    3    7     3     3    4.6843E+00  1.9718E+00   2.7125E+00  0.000E+00  0.000E+00  0.000E+00  1.06987E+03  1.555E+00  8.218E+00  5.547E-01  1.777E+00
   2    4    8     3     4    2.7125E+00  2.2567E+00   4.5579E-01  0.000E+00  0.000E+00  0.000E+00  1.06682E+03  1.364E+00  7.455E+00  6.709E-01  1.682E+00
   2    5    8     3     5    4.5579E-01  4.5579E-01   0.0000E+00  0.000E+00  0.000E+00  0.000E+00  1.06362E+03  0.000E+00  6.655E+00  4.991E-01  1.582E+00
   2    6    8     3     6    0.0000E+00  0.0000E+00   0.0000E+00  0.000E+00  0.000E+00  0.000E+00  1.06055E+03  0.000E+00  6.145E+00  1.844E-01  1.000E+00
   2    5   10     4     1    1.0000E+01  9.0525E-01   9.0947E+00  0.000E+00  0.000E+00  0.000E+00  1.07835E+03  6.210E-01  1.000E+01  2.500E-01  1.207E+00
   2    5    9     4     2    9.0947E+00  1.7835E+00   7.3113E+00  0.000E+00  0.000E+00  0.000E+00  1.07148E+03  5.670E-01  1.000E+01  5.000E-01  1.189E+00
   2    6    8     4     3    7.3113E+00  1.2257E+00   6.0855E+00  0.000E+00  0.000E+00  0.000E+00  1.06368E+03  5.021E-01  1.000E+01  3.500E-01  1.167E+00
   2    6    8     5     1    6.0855E+00  1.4716E+00   4.6139E+00  0.000E+00  0.000E+00  0.000E+00  1.05854E+03  5.396E-01  1.039E+01  4.158E-01  1.180E+00
   2    7    7     5     2    4.6139E+00  1.4897E+00   3.1242E+00  0.000E+00  0.000E+00  0.000E+00  1.05398E+03  4.817E-01  8.557E+00  4.279E-01  1.161E+00
   2    8    7     5     3    3.1242E+00  8.2855E-01   2.2957E+00  0.000E+00  0.000E+00  0.000E+00  1.04968E+03  4.253E-01  6.911E+00  2.419E-01  1.142E+00
   2    8    6     5     4    2.2957E+00  4.9455E-01   1.8011E+00  0.000E+00  0.000E+00  0.000E+00  1.04664E+03  3.856E-01  5.843E+00  1.461E-01  1.129E+00
   2    9    6     6     1    1.8011E+00  1.8011E+00   0.0000E+00  0.000E+00  0.000E+00  0.000E+00  1.04278E+03  5.669E-02  1.200E+01  6.000E-01  1.019E+00
   2   10    7     6     2    0.0000E+00  0.0000E+00   0.0000E+00  0.000E+00  0.000E+00  0.000E+00  1.03818E+03  0.000E+00  1.200E+01  6.000E-01  1.000E+00
   2   11    7     6     3    0.0000E+00  0.0000E+00   0.0000E+00  0.000E+00  0.000E+00  0.000E+00  1.03364E+03  0.000E+00  1.200E+01  6.000E-01  1.000E+00
   2   12    7     6     4    0.0000E+00  0.0000E+00   0.0000E+00  0.000E+00  0.000E+00  0.000E+00  1.02909E+03  0.000E+00  1.200E+01  6.000E-01  5.886E-01
   2   13    7     6     5    0.0000E+00 -7.2596E-01   7.2596E-01  0.000E+00  0.000E+00  0.000E+00  1.02601E+03  9.636E-02  1.200E+01  2.400E-01 -1.008E+00
   2   14    9     7     1    1.5000E+02  2.9355E+00   1.4706E+02  0.000E+00  0.000E+00  0.000E+00  1.03986E+03  2.283E+00  5.528E+01  5.591E+00  1.750E-01
   2   13    8     7     2    1.4706E+02  4.0801E+00   1.4298E+02  0.000E+00  0.000E+00  0.000E+00  1.03476E+03  2.265E+00  5.519E+01  6.140E+00  2.215E-01
   2   13    7     7     3    1.4298E+02  3.5283E+00   1.3946E+02  0.000E+00  0.000E+00  0.000E+00  1.02966E+03  2.244E+00  5.510E+01  5.572E+00  2.111E-01
   2   13    6     8     1    1.4018E+02  1.6551E+00   1.3853E+02  0.000E+00  0.000E+00  0.000E+00  1.02462E+03  2.740E+00  3.973E+01  4.049E+00  1.363E-01
   2   13    5     8     2    1.3853E+02 -1.5191E+00   1.4005E+02  0.000E+00  0.000E+00  0.000E+00  1.01836E+03  2.740E+00  3.972E+01  4.048E+00 -1.251E-01
   2   13    4     8     3    1.4005E+02 -4.6046E+00   1.4465E+02  0.000E+00  0.000E+00  0.000E+00  1.01214E+03  2.762E+00  4.005E+01  4.081E+00 -3.761E-01
   2   13    3     8     4    1.4465E+02 -5.3663E+00   1.5002E+02  0.000E+00  0.000E+00  0.000E+00  1.00592E+03  2.798E+00  4.057E+01  4.134E+00 -4.327E-01
   2   13    2     8     5    1.5002E+02 -3.3089E+00   1.5333E+02  0.000E+00  0.000E+00  0.000E+00  9.99704E+02  2.829E+00  4.101E+01  4.179E+00 -2.639E-01
   2   13    1     8     6    1.5333E+02 -2.0996E+00   1.5543E+02  0.000E+00  0.000E+00  0.000E+00  9.94722E+02  2.847E+00  4.129E+01  2.524E+00 -2.772E-01
   2    4    5     9     1    0.0000E+00  0.0000E+00   0.0000E+00  0.000E+00  0.000E+00  0.000E+00  1.06000E+03  0.000E+00  2.000E+01  2.000E-03  1.000E+00
   2    4    5    10     1    0.0000E+00  0.0000E+00   0.0000E+00  0.000E+00  0.000E+00  0.000E+00  1.08000E+03  0.000E+00  2.000E+01  2.000E-03  1.000E+00



 ..........LAKE  1 IS DRY..........

     SECTIONS OF THE LAKE BOTTOM HAVE BECOME DRY.  THE DRYSECTIONS
     LIE ABOVE THE FOLLOWING  1 AQUIFER CELLS (LAYER,ROW,COLUMN):
     (  2,  4,  5)  (

 PERIOD     2     TIME STEP     3     TIME STEP LENGTH  1.7520E+05
 PERIOD TIME  5.2560E+05     TOTAL SIMULATION TIME  3.1536E+06


                 HYDROLOGIC BUDGET SUMMARIES FOR SIMULATED LAKES
     (ALL FLUID FLUXES ARE VOLUMES ADDED TO THE LAKE DURING PRESENT TIME STEP)
     ----------------------------------------------------------------------------------------
 LAKE    STAGE         VOLUME     VOL. CHANGE      PRECIP     EVAPORATION    SPECIFIED RUNOFF     COMPUTED RUNOFF    TOTAL RUNOFF
   1  1.074500E+03  0.000000E+00  0.000000E+00  0.000000E+00  0.000000E+00   0.000000E+00          0.000000E+00      0.000000E+00

            GROUND WATER            SURFACE WATER        WATER          UZF INFIL.
 LAKE    INFLOW     OUTFLOW      INFLOW     OUTFLOW       USE        FROM LAKE
   1  0.0000E+00  0.0000E+00  0.0000E+00  0.0000E+00  0.0000E+00       0.0000E+00

      CONNECTED LAKE   TIME-STEP         STAGE-CHANGE          PERCENT
 LAKE    INFLUX      SURFACE AREA   TIME STEP  CUMULATIVE    DISCREPANCY
   1   0.0000E+00     0.0000E+00   0.0000E+00  0.0000E+00       0.000
 --------------------------------------------------------------------------------



            CUMULATIVE HYDROLOGIC BUDGET SUMMARIES FOR SIMULATED LAKES
     (ALL FLUID FLUXES ARE SUMS OF VOLUMES ADDED TO THE LAKE SINCE INITIAL TIME)
     ---------------------------------------------------------------------------
 LAKE       PRECIP       EVAP     SPECIFIED RUNOFF   COMPUTED RUNOFF   TOTAL RUNOFF
   1     0.0000E+00  0.0000E+00       0.0000E+00       0.0000E+00       0.0000E+00

            GROUND WATER            SURFACE WATER       UZF INFIL.
 LAKE    INFLOW     OUTFLOW      INFLOW     OUTFLOW     FROM LAKE
   1  0.0000E+00  0.0000E+00  0.0000E+00  0.0000E+00    0.0000E+00

         WATER    CONNECTED LAKE   CHANGE       PERCENT
 LAKE     USE         INFLUX       IN VOL.    DISCREPANCY
   1   0.0000E+00   0.0000E+00   0.0000E+00      0.000
 --------------------------------------------------------------------------------

 UBDSV3 SAVING "           GW ET" ON UNIT  61 AT TIME STEP     3, STRESS PERIOD   2
 UBDSV3 SAVING "    UZF RECHARGE" ON UNIT  61 AT TIME STEP     3, STRESS PERIOD   2
 UBDSV3 SAVING " SURFACE LEAKAGE" ON UNIT  61 AT TIME STEP     3, STRESS PERIOD   2
 UBDSV3 SAVING "       HORT+DUNN" ON UNIT  61 AT TIME STEP     3, STRESS PERIOD   2
 UBDSV3 SAVING "  STORAGE CHANGE" ON UNIT  61 AT TIME STEP     3, STRESS PERIOD   2


UNSATURATED ZONE PACKAGE VOLUMETRIC BUDGET FOR  TIME STEP     3 STRESS PERIOD    2
  ------------------------------------------------------------------------------



     CUMULATIVE VOLUMES      L**3       RATES FOR THIS TIME STEP      L**3/T
     ------------------                 ------------------------

           IN:                                      IN:
           ---                                      ---
        INFILTRATION =    37751220.0000          INFILTRATION =          67.6000

          OUT:                                     OUT:
          ----                                     ----
              UZF ET =    68656289.9170                UZF ET =         130.5915
        UZF RECHARGE =    25328778.5046          UZF RECHARGE =          43.2754

            IN - OUT =   -56233848.4216              IN - OUT =        -106.2669

          STORAGE:                                 STORAGE:
          --------                                 --------
      STORAGE CHANGE =   -56219451.7999        STORAGE CHANGE =        -106.2452

 PERCENT DISCREPANCY IS DIFFERENCE BETWEEN IN-OUT MINUS CHANGE IN STORAGE
 DIVIDED BY THE AVERAGE OF IN AND OUT TIMES 100

 PERCENT DISCREPANCY =          -0.00     PERCENT DISCREPANCY =          -0.01






1
              HEAD IN LAYER   1 AT END OF TIME STEP     3 IN STRESS PERIOD    2
  -----------------------------------------------------------------------------

           1       2       3       4       5       6       7       8       9      10
 ...................................................................................
   1  6999.00 6999.00 6999.00 6999.00 6999.00 6999.00 6999.00 6999.00 6999.00 6999.00
   2  6999.00 6999.00 6999.00 6999.00 6999.00 6999.00 6999.00 6999.00 6999.00 6999.00
   3  6999.00 6999.00 6999.00 6999.00 6999.00 6999.00 6999.00 6999.00 6999.00 6999.00
   4  6999.00 6999.00 6999.00 6999.00 6999.00 6999.00 6999.00 6999.00 6999.00 6999.00
   5  6999.00 6999.00 6999.00 6999.00 6999.00 6999.00 6999.00 6999.00 6999.00 6999.00
   6  6999.00 6999.00 6999.00 6999.00 6999.00 6999.00 6999.00 6999.00 6999.00 6999.00
   7  6999.00 6999.00 6999.00 6999.00 6999.00 6999.00 6999.00 6999.00 6999.00 6999.00
   8  6999.00 6999.00 6999.00 6999.00 6999.00 6999.00 6999.00 6999.00 6999.00 6999.00
   9  6999.00 6999.00 6999.00 6999.00 6999.00 6999.00 6999.00 6999.00 6999.00 6999.00
  10  6999.00 6999.00 6999.00 6999.00 6999.00 6999.00 6999.00 6999.00 6999.00 6999.00
  11  6999.00 6999.00 6999.00 6999.00 6999.00 6999.00 6999.00 6999.00 6999.00 6999.00
  12  6999.00 6999.00 6999.00 6999.00 6999.00 6999.00 6999.00 6999.00 6999.00 6999.00
  13  6999.00 6999.00 6999.00 6999.00 6999.00 6999.00 6999.00 6999.00 6999.00 6999.00
  14  6999.00 6999.00 6999.00 6999.00 6999.00 6999.00 6999.00 6999.00 6999.00 6999.00
  15  6999.00 6999.00 6999.00 6999.00 6999.00 6999.00 6999.00 6999.00 6999.00 6999.00
1
              HEAD IN LAYER   2 AT END OF TIME STEP     3 IN STRESS PERIOD    2
  -----------------------------------------------------------------------------

           1       2       3       4       5       6       7       8       9      10
 ...................................................................................
   1  1090.84 1085.45 6999.00 6999.00 6999.00 6999.00 6999.00 6999.00 6999.00 6999.00
   2  1085.61 1079.65 1072.73 6999.00 6999.00 1062.24 1062.24 1061.79 6999.00 6999.00
   3  6999.00 1068.84 1065.45 1061.58 1061.78 1061.93 1062.31 1061.16 6999.00 6999.00
   4  1056.59 1059.07 1058.34 1055.33 1054.19 1053.38 1054.69 1058.72 1057.02 6999.00
   5  1052.39 1051.95 1051.02 1049.53 1049.39 1049.78 1049.89 1051.56 1054.86 1057.11
   6  1048.22 1046.66 1045.23 1044.02 1044.37 1046.04 1047.24 1049.32 1051.63 1055.51
   7  1045.20 1041.82 1040.23 1039.21 1039.89 1041.87 1043.90 1046.10 1047.93 6999.00
   8  6999.00 1036.71 1035.62 1034.82 1035.60 1037.64 1039.47 1042.51 1043.02 6999.00
   9  6999.00 1031.05 1030.72 1030.39 1031.37 1033.60 1034.79 1036.59 1038.12 6999.00
  10  6999.00 1025.42 1025.84 1026.34 1027.64 1029.73 1030.92 1032.50 1034.24 1034.63
  11  6999.00 1018.71 1019.97 1022.70 1024.71 1026.94 1028.57 1030.60 1033.02 6999.00
  12  1002.65 1009.26 1013.45 1017.86 1021.41 1024.81 1027.33 1030.50 1034.05 6999.00
  13   995.55 1000.50 1007.22 1013.27 1018.74 1024.21 1029.03 1034.10 1036.60 6999.00
  14  6999.00 1006.13 1009.30 1014.08 1019.11 1024.12 1029.49 1035.08 1039.34 6999.00
  15  6999.00 6999.00 1012.83 1015.69 1019.45 1022.88 6999.00 6999.00 6999.00 6999.00

 HEAD WILL BE SAVED ON UNIT   58 AT END OF TIME STEP    3, STRESS PERIOD    2
1
  VOLUMETRIC BUDGET FOR ENTIRE MODEL AT END OF TIME STEP    3, STRESS PERIOD   2
  ------------------------------------------------------------------------------

     CUMULATIVE VOLUMES      L**3       RATES FOR THIS TIME STEP      L**3/T
     ------------------                 ------------------------

           IN:                                      IN:
           ---                                      ---
             STORAGE =     2691988.0000               STORAGE =           4.8953
       CONSTANT HEAD =           0.0000         CONSTANT HEAD =           0.0000
               WELLS =           0.0000                 WELLS =           0.0000
     HEAD DEP BOUNDS =      680835.0625       HEAD DEP BOUNDS =           0.2151
      STREAM LEAKAGE =   156872400.0000        STREAM LEAKAGE =          44.1990
       LAKE  SEEPAGE =           0.0000         LAKE  SEEPAGE =           0.0000
        UZF RECHARGE =    25328776.0000          UZF RECHARGE =          43.2753
               GW ET =           0.0000                 GW ET =           0.0000
     SURFACE LEAKAGE =           0.0000       SURFACE LEAKAGE =           0.0000

            TOTAL IN =   185573984.0000              TOTAL IN =          92.5848

          OUT:                                     OUT:
          ----                                     ----
             STORAGE =    23946618.0000               STORAGE =          44.3531
       CONSTANT HEAD =           0.0000         CONSTANT HEAD =           0.0000
               WELLS =    63072000.0000                 WELLS =          20.0000
     HEAD DEP BOUNDS =      903939.6250       HEAD DEP BOUNDS =           0.2871
      STREAM LEAKAGE =    54547976.0000        STREAM LEAKAGE =          17.6244
       LAKE  SEEPAGE =           0.0000         LAKE  SEEPAGE =           0.0000
        UZF RECHARGE =           0.0000          UZF RECHARGE =           0.0000
               GW ET =    43104100.0000                 GW ET =          10.3199
     SURFACE LEAKAGE =           0.0000       SURFACE LEAKAGE =           0.0000

           TOTAL OUT =   185574624.0000             TOTAL OUT =          92.5844

            IN - OUT =        -640.0000              IN - OUT =       3.8147E-04

 PERCENT DISCREPANCY =          -0.00     PERCENT DISCREPANCY =           0.00






         TIME SUMMARY AT END OF TIME STEP    3 IN STRESS PERIOD    2
                    SECONDS     MINUTES      HOURS       DAYS        YEARS
                    -----------------------------------------------------------
   TIME STEP LENGTH 1.75200E+05  2920.0      48.667      2.0278     5.55175E-03
 STRESS PERIOD TIME 5.25600E+05  8760.0      146.00      6.0833     1.66553E-02
         TOTAL TIME 3.15360E+06  52560.      876.00      36.500     9.99316E-02
1
 
 SOLVING FOR HEAD 
                                                   Max.-Head-Change                         Max.-Flux-Residual
  Residual-Control   Outer-Iter.   Inner-Iter.     Column Row Layer    Maximum-Head-Change  Column Row Layer    Maximum-Flux-Residual          L2-NORM 
          0                 1           2             6    5     2      -0.4852178645E-01       6    5    2        -0.1406552207E+01      0.5082298746E+01
          0                 2           2             6    5     2       0.4643793280E-02       6    5    2         0.1406474992E+00      0.2098433825E+00
          0                 3           1             6    5     2      -0.2668216856E-03       6    5    2        -0.8438919084E-02      0.1175855909E-01

    ------------------------------------------------
       NWT REQUIRED            3 OUTER ITERATIONS 
       AND A TOTAL OF          5 INNER ITERATIONS.
    ------------------------------------------------

 OUTPUT CONTROL WAS SPECIFIED FOR A NONEXISTENT TIME STEP
 OR OUTPUT CONTROL DATA ARE NOT ENTERED IN ASCENDING ORDER
 OUTPUT CONTROL STRESS PERIOD    2   TIME STEP    1
 MODEL STRESS PERIOD    2   TIME STEP    4
 APPLYING THE SPECIFIED OUTPUT CONTROL TO THE CURRENT TIME STEP

 OUTPUT CONTROL FOR STRESS PERIOD    2   TIME STEP    4
    PRINT BUDGET
    SAVE BUDGET

            WELLS   PERIOD    2   STEP   4
 WELL      1   LAYER   2   ROW     6   COL     4   RATE    -2.00000    
 WELL      2   LAYER   2   ROW     6   COL     5   RATE    -2.00000    
 WELL      3   LAYER   2   ROW     7   COL     4   RATE    -2.00000    
 WELL      4   LAYER   2   ROW     7   COL     5   RATE    -2.00000    
 WELL      5   LAYER   2   ROW     8   COL     4   RATE    -2.00000    
 WELL      6   LAYER   2   ROW     8   COL     5   RATE    -2.00000    
 WELL      7   LAYER   2   ROW     9   COL     4   RATE    -2.00000    
 WELL      8   LAYER   2   ROW     9   COL     5   RATE    -2.00000    
 WELL      9   LAYER   2   ROW    10   COL     4   RATE    -2.00000    
 WELL     10   LAYER   2   ROW    10   COL     5   RATE    -2.00000    

  HEAD DEP BOUNDS   PERIOD    2   STEP     4
 BOUNDARY      1   LAYER   2   ROW    13   COL     1   RATE   -0.287188    
 BOUNDARY      2   LAYER   2   ROW    14   COL     9   RATE    0.214924    



 STREAM LISTING     PERIOD      2   STEP        4

 LAYER ROW COL. STREAM  RCH.  FLOW INTO     FLOW TO   FLOW OUT OF   OVRLND.     DIRECT     STREAM       STREAM     STREAM     STREAM   STREAMBED  STREAMBED
                SEG.NO.  NO.  STRM. RCH.    AQUIFER    STRM. RCH.    RUNOFF     PRECIP       ET          HEAD       DEPTH      WIDTH   CONDCTNC.   GRADIENT

   2    1    1     1     1    2.1379E+01  1.8095E+00   1.9569E+01  0.000E+00  0.000E+00  0.000E+00  1.09416E+03  1.108E+00  1.211E+01  5.448E-01  1.107E+00
   2    2    2     1     2    1.9569E+01  3.2367E+00   1.6333E+01  0.000E+00  0.000E+00  0.000E+00  1.08912E+03  1.066E+00  1.137E+01  7.960E-01  1.355E+00
   2    3    3     1     3    1.6333E+01  2.5109E+00   1.3822E+01  0.000E+00  0.000E+00  0.000E+00  1.08343E+03  1.014E+00  1.043E+01  6.256E-01  1.338E+00
   2    3    4     1     4    1.3822E+01  2.1126E+00   1.1709E+01  0.000E+00  0.000E+00  0.000E+00  1.07837E+03  9.659E-01  9.598E+00  5.327E-01  1.322E+00
   2    4    5     2     1    1.7093E+00  1.7093E+00   0.0000E+00  0.000E+00  0.000E+00  0.000E+00  1.07199E+03  5.433E-02  1.200E+01  7.800E-01  1.018E+00
   2    5    6     2     2    0.0000E+00  0.0000E+00   0.0000E+00  0.000E+00  0.000E+00  0.000E+00  1.06651E+03  0.000E+00  1.200E+01  6.000E-01  1.000E+00
   2    6    6     2     3    0.0000E+00  0.0000E+00   0.0000E+00  0.000E+00  0.000E+00  0.000E+00  1.06179E+03  0.000E+00  1.200E+01  6.000E-01  1.000E+00
   2    7    6     2     4    0.0000E+00  0.0000E+00   0.0000E+00  0.000E+00  0.000E+00  0.000E+00  1.05708E+03  0.000E+00  1.200E+01  6.000E-01  1.000E+00
   2    8    6     2     5    0.0000E+00  0.0000E+00   0.0000E+00  0.000E+00  0.000E+00  0.000E+00  1.05236E+03  0.000E+00  1.200E+01  6.000E-01  1.000E+00
   2    3    5     3     1    1.0000E+01  2.8252E+00   7.1748E+00  0.000E+00  0.000E+00  0.000E+00  1.07555E+03  1.909E+00  9.636E+00  7.227E-01  1.955E+00
   2    3    6     3     2    7.1748E+00  2.4905E+00   4.6843E+00  0.000E+00  0.000E+00  0.000E+00  1.07264E+03  1.727E+00  8.909E+00  6.682E-01  1.864E+00
   2    3    7     3     3    4.6843E+00  1.9718E+00   2.7125E+00  0.000E+00  0.000E+00  0.000E+00  1.06987E+03  1.555E+00  8.218E+00  5.547E-01  1.777E+00
   2    4    8     3     4    2.7125E+00  2.2567E+00   4.5579E-01  0.000E+00  0.000E+00  0.000E+00  1.06682E+03  1.364E+00  7.455E+00  6.709E-01  1.682E+00
   2    5    8     3     5    4.5579E-01  4.5579E-01   0.0000E+00  0.000E+00  0.000E+00  0.000E+00  1.06362E+03  0.000E+00  6.655E+00  4.991E-01  1.582E+00
   2    6    8     3     6    0.0000E+00  0.0000E+00   0.0000E+00  0.000E+00  0.000E+00  0.000E+00  1.06055E+03  0.000E+00  6.145E+00  1.844E-01  1.000E+00
   2    5   10     4     1    1.0000E+01  9.0525E-01   9.0947E+00  0.000E+00  0.000E+00  0.000E+00  1.07835E+03  6.210E-01  1.000E+01  2.500E-01  1.207E+00
   2    5    9     4     2    9.0947E+00  1.7835E+00   7.3113E+00  0.000E+00  0.000E+00  0.000E+00  1.07148E+03  5.670E-01  1.000E+01  5.000E-01  1.189E+00
   2    6    8     4     3    7.3113E+00  1.2257E+00   6.0855E+00  0.000E+00  0.000E+00  0.000E+00  1.06368E+03  5.021E-01  1.000E+01  3.500E-01  1.167E+00
   2    6    8     5     1    6.0855E+00  1.4716E+00   4.6139E+00  0.000E+00  0.000E+00  0.000E+00  1.05854E+03  5.396E-01  1.039E+01  4.158E-01  1.180E+00
   2    7    7     5     2    4.6139E+00  1.4897E+00   3.1242E+00  0.000E+00  0.000E+00  0.000E+00  1.05398E+03  4.817E-01  8.557E+00  4.279E-01  1.161E+00
   2    8    7     5     3    3.1242E+00  8.2855E-01   2.2957E+00  0.000E+00  0.000E+00  0.000E+00  1.04968E+03  4.253E-01  6.911E+00  2.419E-01  1.142E+00
   2    8    6     5     4    2.2957E+00  4.9455E-01   1.8011E+00  0.000E+00  0.000E+00  0.000E+00  1.04664E+03  3.856E-01  5.843E+00  1.461E-01  1.129E+00
   2    9    6     6     1    1.8011E+00  1.8011E+00   0.0000E+00  0.000E+00  0.000E+00  0.000E+00  1.04278E+03  5.669E-02  1.200E+01  6.000E-01  1.019E+00
   2   10    7     6     2    0.0000E+00  0.0000E+00   0.0000E+00  0.000E+00  0.000E+00  0.000E+00  1.03818E+03  0.000E+00  1.200E+01  6.000E-01  1.000E+00
   2   11    7     6     3    0.0000E+00  0.0000E+00   0.0000E+00  0.000E+00  0.000E+00  0.000E+00  1.03364E+03  0.000E+00  1.200E+01  6.000E-01  1.000E+00
   2   12    7     6     4    0.0000E+00  0.0000E+00   0.0000E+00  0.000E+00  0.000E+00  0.000E+00  1.02909E+03  0.000E+00  1.200E+01  6.000E-01  5.851E-01
   2   13    7     6     5    0.0000E+00 -7.2702E-01   7.2702E-01  0.000E+00  0.000E+00  0.000E+00  1.02601E+03  9.645E-02  1.200E+01  2.400E-01 -1.010E+00
   2   14    9     7     1    1.5000E+02  2.9079E+00   1.4709E+02  0.000E+00  0.000E+00  0.000E+00  1.03986E+03  2.284E+00  5.528E+01  5.591E+00  1.734E-01
   2   13    8     7     2    1.4709E+02  4.0500E+00   1.4304E+02  0.000E+00  0.000E+00  0.000E+00  1.03477E+03  2.265E+00  5.519E+01  6.140E+00  2.199E-01
   2   13    7     7     3    1.4304E+02  3.5054E+00   1.3954E+02  0.000E+00  0.000E+00  0.000E+00  1.02966E+03  2.245E+00  5.510E+01  5.572E+00  2.097E-01
   2   13    6     8     1    1.4026E+02  1.6342E+00   1.3863E+02  0.000E+00  0.000E+00  0.000E+00  1.02462E+03  2.741E+00  3.974E+01  4.050E+00  1.345E-01
   2   13    5     8     2    1.3863E+02 -1.5675E+00   1.4020E+02  0.000E+00  0.000E+00  0.000E+00  1.01837E+03  2.741E+00  3.974E+01  4.049E+00 -1.290E-01
   2   13    4     8     3    1.4020E+02 -4.6409E+00   1.4484E+02  0.000E+00  0.000E+00  0.000E+00  1.01214E+03  2.763E+00  4.007E+01  4.083E+00 -3.789E-01
   2   13    3     8     4    1.4484E+02 -5.4038E+00   1.5024E+02  0.000E+00  0.000E+00  0.000E+00  1.00592E+03  2.799E+00  4.059E+01  4.136E+00 -4.355E-01
   2   13    2     8     5    1.5024E+02 -3.3287E+00   1.5357E+02  0.000E+00  0.000E+00  0.000E+00  9.99705E+02  2.830E+00  4.104E+01  4.182E+00 -2.653E-01
   2   13    1     8     6    1.5357E+02 -2.1053E+00   1.5568E+02  0.000E+00  0.000E+00  0.000E+00  9.94724E+02  2.849E+00  4.131E+01  2.526E+00 -2.778E-01
   2    4    5     9     1    0.0000E+00  0.0000E+00   0.0000E+00  0.000E+00  0.000E+00  0.000E+00  1.06000E+03  0.000E+00  2.000E+01  2.000E-03  1.000E+00
   2    4    5    10     1    0.0000E+00  0.0000E+00   0.0000E+00  0.000E+00  0.000E+00  0.000E+00  1.08000E+03  0.000E+00  2.000E+01  2.000E-03  1.000E+00



 ..........LAKE  1 IS DRY..........

     SECTIONS OF THE LAKE BOTTOM HAVE BECOME DRY.  THE DRYSECTIONS
     LIE ABOVE THE FOLLOWING  1 AQUIFER CELLS (LAYER,ROW,COLUMN):
     (  2,  4,  5)  (

 PERIOD     2     TIME STEP     4     TIME STEP LENGTH  1.7520E+05
 PERIOD TIME  7.0080E+05     TOTAL SIMULATION TIME  3.3288E+06


                 HYDROLOGIC BUDGET SUMMARIES FOR SIMULATED LAKES
     (ALL FLUID FLUXES ARE VOLUMES ADDED TO THE LAKE DURING PRESENT TIME STEP)
     ----------------------------------------------------------------------------------------
 LAKE    STAGE         VOLUME     VOL. CHANGE      PRECIP     EVAPORATION    SPECIFIED RUNOFF     COMPUTED RUNOFF    TOTAL RUNOFF
   1  1.074500E+03  0.000000E+00  0.000000E+00  0.000000E+00  0.000000E+00   0.000000E+00          0.000000E+00      0.000000E+00

            GROUND WATER            SURFACE WATER        WATER          UZF INFIL.
 LAKE    INFLOW     OUTFLOW      INFLOW     OUTFLOW       USE        FROM LAKE
   1  0.0000E+00  0.0000E+00  0.0000E+00  0.0000E+00  0.0000E+00       0.0000E+00

      CONNECTED LAKE   TIME-STEP         STAGE-CHANGE          PERCENT
 LAKE    INFLUX      SURFACE AREA   TIME STEP  CUMULATIVE    DISCREPANCY
   1   0.0000E+00     0.0000E+00   0.0000E+00  0.0000E+00       0.000
 --------------------------------------------------------------------------------



            CUMULATIVE HYDROLOGIC BUDGET SUMMARIES FOR SIMULATED LAKES
     (ALL FLUID FLUXES ARE SUMS OF VOLUMES ADDED TO THE LAKE SINCE INITIAL TIME)
     ---------------------------------------------------------------------------
 LAKE       PRECIP       EVAP     SPECIFIED RUNOFF   COMPUTED RUNOFF   TOTAL RUNOFF
   1     0.0000E+00  0.0000E+00       0.0000E+00       0.0000E+00       0.0000E+00

            GROUND WATER            SURFACE WATER       UZF INFIL.
 LAKE    INFLOW     OUTFLOW      INFLOW     OUTFLOW     FROM LAKE
   1  0.0000E+00  0.0000E+00  0.0000E+00  0.0000E+00    0.0000E+00

         WATER    CONNECTED LAKE   CHANGE       PERCENT
 LAKE     USE         INFLUX       IN VOL.    DISCREPANCY
   1   0.0000E+00   0.0000E+00   0.0000E+00      0.000
 --------------------------------------------------------------------------------

 UBDSV3 SAVING "           GW ET" ON UNIT  61 AT TIME STEP     4, STRESS PERIOD   2
 UBDSV3 SAVING "    UZF RECHARGE" ON UNIT  61 AT TIME STEP     4, STRESS PERIOD   2
 UBDSV3 SAVING " SURFACE LEAKAGE" ON UNIT  61 AT TIME STEP     4, STRESS PERIOD   2
 UBDSV3 SAVING "       HORT+DUNN" ON UNIT  61 AT TIME STEP     4, STRESS PERIOD   2
 UBDSV3 SAVING "  STORAGE CHANGE" ON UNIT  61 AT TIME STEP     4, STRESS PERIOD   2


UNSATURATED ZONE PACKAGE VOLUMETRIC BUDGET FOR  TIME STEP     4 STRESS PERIOD    2
  ------------------------------------------------------------------------------



     CUMULATIVE VOLUMES      L**3       RATES FOR THIS TIME STEP      L**3/T
     ------------------                 ------------------------

           IN:                                      IN:
           ---                                      ---
        INFILTRATION =    49594740.0000          INFILTRATION =          67.6000

          OUT:                                     OUT:
          ----                                     ----
              UZF ET =    91531025.9966                UZF ET =         130.5636
        UZF RECHARGE =    32761339.4690          UZF RECHARGE =          42.4233

            IN - OUT =   -74697625.4656              IN - OUT =        -105.3869

          STORAGE:                                 STORAGE:
          --------                                 --------
      STORAGE CHANGE =   -74677890.7509        STORAGE CHANGE =        -105.3564

 PERCENT DISCREPANCY IS DIFFERENCE BETWEEN IN-OUT MINUS CHANGE IN STORAGE
 DIVIDED BY THE AVERAGE OF IN AND OUT TIMES 100

 PERCENT DISCREPANCY =          -0.00     PERCENT DISCREPANCY =          -0.02






1
  VOLUMETRIC BUDGET FOR ENTIRE MODEL AT END OF TIME STEP    4, STRESS PERIOD   2
  ------------------------------------------------------------------------------

     CUMULATIVE VOLUMES      L**3       RATES FOR THIS TIME STEP      L**3/T
     ------------------                 ------------------------

           IN:                                      IN:
           ---                                      ---
             STORAGE =     3622278.5000               STORAGE =           5.3099
       CONSTANT HEAD =           0.0000         CONSTANT HEAD =           0.0000
               WELLS =           0.0000                 WELLS =           0.0000
     HEAD DEP BOUNDS =      718489.6875       HEAD DEP BOUNDS =           0.2149
      STREAM LEAKAGE =   164489472.0000        STREAM LEAKAGE =          43.4765
       LAKE  SEEPAGE =           0.0000         LAKE  SEEPAGE =           0.0000
        UZF RECHARGE =    32761336.0000          UZF RECHARGE =          42.4233
               GW ET =           0.0000                 GW ET =           0.0000
     SURFACE LEAKAGE =           0.0000       SURFACE LEAKAGE =           0.0000

            TOTAL IN =   201591584.0000              TOTAL IN =          91.4246

          OUT:                                     OUT:
          ----                                     ----
             STORAGE =    31484270.0000               STORAGE =          43.0231
       CONSTANT HEAD =           0.0000         CONSTANT HEAD =           0.0000
               WELLS =    66576000.0000                 WELLS =          20.0000
     HEAD DEP BOUNDS =      954255.0625       HEAD DEP BOUNDS =           0.2872
      STREAM LEAKAGE =    57661864.0000        STREAM LEAKAGE =          17.7733
       LAKE  SEEPAGE =           0.0000         LAKE  SEEPAGE =           0.0000
        UZF RECHARGE =           0.0000          UZF RECHARGE =           0.0000
               GW ET =    44915772.0000                 GW ET =          10.3406
     SURFACE LEAKAGE =           0.0000       SURFACE LEAKAGE =           0.0000

           TOTAL OUT =   201592160.0000             TOTAL OUT =          91.4242

            IN - OUT =        -576.0000              IN - OUT =       3.2043E-04

 PERCENT DISCREPANCY =          -0.00     PERCENT DISCREPANCY =           0.00






         TIME SUMMARY AT END OF TIME STEP    4 IN STRESS PERIOD    2
                    SECONDS     MINUTES      HOURS       DAYS        YEARS
                    -----------------------------------------------------------
   TIME STEP LENGTH 1.75200E+05  2920.0      48.667      2.0278     5.55175E-03
 STRESS PERIOD TIME 7.00800E+05  11680.      194.67      8.1111     2.22070E-02
         TOTAL TIME 3.32880E+06  55480.      924.67      38.528     0.10548    
1
 
 SOLVING FOR HEAD 
                                                   Max.-Head-Change                         Max.-Flux-Residual
  Residual-Control   Outer-Iter.   Inner-Iter.     Column Row Layer    Maximum-Head-Change  Column Row Layer    Maximum-Flux-Residual          L2-NORM 
          0                 1           2             8    2     2       0.4773254793E-01       6    5    2        -0.1262498944E+01      0.4929908997E+01
          0                 2           2             6    5     2       0.4178290541E-02       6    5    2         0.1262435995E+00      0.1941966426E+00
          0                 3           1             6    5     2      -0.2395667812E-03       6    5    2        -0.7574671872E-02      0.1058135895E-01

    ------------------------------------------------
       NWT REQUIRED            3 OUTER ITERATIONS 
       AND A TOTAL OF          5 INNER ITERATIONS.
    ------------------------------------------------

 OUTPUT CONTROL FOR STRESS PERIOD    2   TIME STEP    5
    PRINT BUDGET
    SAVE BUDGET

            WELLS   PERIOD    2   STEP   5
 WELL      1   LAYER   2   ROW     6   COL     4   RATE    -2.00000    
 WELL      2   LAYER   2   ROW     6   COL     5   RATE    -2.00000    
 WELL      3   LAYER   2   ROW     7   COL     4   RATE    -2.00000    
 WELL      4   LAYER   2   ROW     7   COL     5   RATE    -2.00000    
 WELL      5   LAYER   2   ROW     8   COL     4   RATE    -2.00000    
 WELL      6   LAYER   2   ROW     8   COL     5   RATE    -2.00000    
 WELL      7   LAYER   2   ROW     9   COL     4   RATE    -2.00000    
 WELL      8   LAYER   2   ROW     9   COL     5   RATE    -2.00000    
 WELL      9   LAYER   2   ROW    10   COL     4   RATE    -2.00000    
 WELL     10   LAYER   2   ROW    10   COL     5   RATE    -2.00000    

  HEAD DEP BOUNDS   PERIOD    2   STEP     5
 BOUNDARY      1   LAYER   2   ROW    13   COL     1   RATE   -0.287312    
 BOUNDARY      2   LAYER   2   ROW    14   COL     9   RATE    0.214769    



 STREAM LISTING     PERIOD      2   STEP        5

 LAYER ROW COL. STREAM  RCH.  FLOW INTO     FLOW TO   FLOW OUT OF   OVRLND.     DIRECT     STREAM       STREAM     STREAM     STREAM   STREAMBED  STREAMBED
                SEG.NO.  NO.  STRM. RCH.    AQUIFER    STRM. RCH.    RUNOFF     PRECIP       ET          HEAD       DEPTH      WIDTH   CONDCTNC.   GRADIENT

   2    1    1     1     1    2.1000E+01  1.7959E+00   1.9204E+01  0.000E+00  0.000E+00  0.000E+00  1.09415E+03  1.102E+00  1.202E+01  5.410E-01  1.106E+00
   2    2    2     1     2    1.9204E+01  3.2007E+00   1.6003E+01  0.000E+00  0.000E+00  0.000E+00  1.08912E+03  1.060E+00  1.126E+01  7.883E-01  1.353E+00
   2    3    3     1     3    1.6003E+01  2.4809E+00   1.3523E+01  0.000E+00  0.000E+00  0.000E+00  1.08343E+03  1.007E+00  1.032E+01  6.191E-01  1.336E+00
   2    3    4     1     4    1.3523E+01  2.0856E+00   1.1437E+01  0.000E+00  0.000E+00  0.000E+00  1.07837E+03  9.596E-01  9.490E+00  5.267E-01  1.320E+00
   2    4    5     2     1    1.4370E+00  1.4370E+00   0.0000E+00  0.000E+00  0.000E+00  0.000E+00  1.07198E+03  4.895E-02  1.200E+01  7.800E-01  1.016E+00
   2    5    6     2     2    0.0000E+00  0.0000E+00   0.0000E+00  0.000E+00  0.000E+00  0.000E+00  1.06651E+03  0.000E+00  1.200E+01  6.000E-01  1.000E+00
   2    6    6     2     3    0.0000E+00  0.0000E+00   0.0000E+00  0.000E+00  0.000E+00  0.000E+00  1.06179E+03  0.000E+00  1.200E+01  6.000E-01  1.000E+00
   2    7    6     2     4    0.0000E+00  0.0000E+00   0.0000E+00  0.000E+00  0.000E+00  0.000E+00  1.05708E+03  0.000E+00  1.200E+01  6.000E-01  1.000E+00
   2    8    6     2     5    0.0000E+00  0.0000E+00   0.0000E+00  0.000E+00  0.000E+00  0.000E+00  1.05236E+03  0.000E+00  1.200E+01  6.000E-01  1.000E+00
   2    3    5     3     1    1.0000E+01  2.8252E+00   7.1748E+00  0.000E+00  0.000E+00  0.000E+00  1.07555E+03  1.909E+00  9.636E+00  7.227E-01  1.955E+00
   2    3    6     3     2    7.1748E+00  2.4905E+00   4.6843E+00  0.000E+00  0.000E+00  0.000E+00  1.07264E+03  1.727E+00  8.909E+00  6.682E-01  1.864E+00
   2    3    7     3     3    4.6843E+00  1.9718E+00   2.7125E+00  0.000E+00  0.000E+00  0.000E+00  1.06987E+03  1.555E+00  8.218E+00  5.547E-01  1.777E+00
   2    4    8     3     4    2.7125E+00  2.2567E+00   4.5579E-01  0.000E+00  0.000E+00  0.000E+00  1.06682E+03  1.364E+00  7.455E+00  6.709E-01  1.682E+00
   2    5    8     3     5    4.5579E-01  4.5579E-01   0.0000E+00  0.000E+00  0.000E+00  0.000E+00  1.06362E+03  0.000E+00  6.655E+00  4.991E-01  1.582E+00
   2    6    8     3     6    0.0000E+00  0.0000E+00   0.0000E+00  0.000E+00  0.000E+00  0.000E+00  1.06055E+03  0.000E+00  6.145E+00  1.844E-01  1.000E+00
   2    5   10     4     1    1.0000E+01  9.0525E-01   9.0947E+00  0.000E+00  0.000E+00  0.000E+00  1.07835E+03  6.210E-01  1.000E+01  2.500E-01  1.207E+00
   2    5    9     4     2    9.0947E+00  1.7835E+00   7.3113E+00  0.000E+00  0.000E+00  0.000E+00  1.07148E+03  5.670E-01  1.000E+01  5.000E-01  1.189E+00
   2    6    8     4     3    7.3113E+00  1.2257E+00   6.0855E+00  0.000E+00  0.000E+00  0.000E+00  1.06368E+03  5.021E-01  1.000E+01  3.500E-01  1.167E+00
   2    6    8     5     1    6.0855E+00  1.4716E+00   4.6139E+00  0.000E+00  0.000E+00  0.000E+00  1.05854E+03  5.396E-01  1.039E+01  4.158E-01  1.180E+00
   2    7    7     5     2    4.6139E+00  1.4897E+00   3.1242E+00  0.000E+00  0.000E+00  0.000E+00  1.05398E+03  4.817E-01  8.557E+00  4.279E-01  1.161E+00
   2    8    7     5     3    3.1242E+00  8.2855E-01   2.2957E+00  0.000E+00  0.000E+00  0.000E+00  1.04968E+03  4.253E-01  6.911E+00  2.419E-01  1.142E+00
   2    8    6     5     4    2.2957E+00  4.9455E-01   1.8011E+00  0.000E+00  0.000E+00  0.000E+00  1.04664E+03  3.856E-01  5.843E+00  1.461E-01  1.129E+00
   2    9    6     6     1    1.8011E+00  1.8011E+00   0.0000E+00  0.000E+00  0.000E+00  0.000E+00  1.04278E+03  5.669E-02  1.200E+01  6.000E-01  1.019E+00
   2   10    7     6     2    0.0000E+00  0.0000E+00   0.0000E+00  0.000E+00  0.000E+00  0.000E+00  1.03818E+03  0.000E+00  1.200E+01  6.000E-01  1.000E+00
   2   11    7     6     3    0.0000E+00  0.0000E+00   0.0000E+00  0.000E+00  0.000E+00  0.000E+00  1.03364E+03  0.000E+00  1.200E+01  6.000E-01  1.000E+00
   2   12    7     6     4    0.0000E+00  0.0000E+00   0.0000E+00  0.000E+00  0.000E+00  0.000E+00  1.02909E+03  0.000E+00  1.200E+01  6.000E-01  5.817E-01
   2   13    7     6     5    0.0000E+00 -7.2795E-01   7.2795E-01  0.000E+00  0.000E+00  0.000E+00  1.02601E+03  9.652E-02  1.200E+01  2.400E-01 -1.011E+00
   2   14    9     7     1    1.5000E+02  2.8854E+00   1.4711E+02  0.000E+00  0.000E+00  0.000E+00  1.03986E+03  2.284E+00  5.528E+01  5.591E+00  1.720E-01
   2   13    8     7     2    1.4711E+02  4.0247E+00   1.4309E+02  0.000E+00  0.000E+00  0.000E+00  1.03477E+03  2.265E+00  5.519E+01  6.140E+00  2.185E-01
   2   13    7     7     3    1.4309E+02  3.4852E+00   1.3960E+02  0.000E+00  0.000E+00  0.000E+00  1.02966E+03  2.245E+00  5.510E+01  5.572E+00  2.085E-01
   2   13    6     8     1    1.4033E+02  1.6140E+00   1.3872E+02  0.000E+00  0.000E+00  0.000E+00  1.02462E+03  2.741E+00  3.975E+01  4.051E+00  1.328E-01
   2   13    5     8     2    1.3872E+02 -1.6090E+00   1.4033E+02  0.000E+00  0.000E+00  0.000E+00  1.01837E+03  2.741E+00  3.975E+01  4.051E+00 -1.324E-01
   2   13    4     8     3    1.4033E+02 -4.6733E+00   1.4500E+02  0.000E+00  0.000E+00  0.000E+00  1.01214E+03  2.764E+00  4.008E+01  4.085E+00 -3.814E-01
   2   13    3     8     4    1.4500E+02 -5.4369E+00   1.5044E+02  0.000E+00  0.000E+00  0.000E+00  1.00593E+03  2.801E+00  4.061E+01  4.138E+00 -4.379E-01
   2   13    2     8     5    1.5044E+02 -3.3467E+00   1.5378E+02  0.000E+00  0.000E+00  0.000E+00  9.99707E+02  2.832E+00  4.106E+01  4.184E+00 -2.666E-01
   2   13    1     8     6    1.5378E+02 -2.1109E+00   1.5590E+02  0.000E+00  0.000E+00  0.000E+00  9.94726E+02  2.851E+00  4.133E+01  2.527E+00 -2.784E-01
   2    4    5     9     1    0.0000E+00  0.0000E+00   0.0000E+00  0.000E+00  0.000E+00  0.000E+00  1.06000E+03  0.000E+00  2.000E+01  2.000E-03  1.000E+00
   2    4    5    10     1    0.0000E+00  0.0000E+00   0.0000E+00  0.000E+00  0.000E+00  0.000E+00  1.08000E+03  0.000E+00  2.000E+01  2.000E-03  1.000E+00



 ..........LAKE  1 IS DRY..........

     SECTIONS OF THE LAKE BOTTOM HAVE BECOME DRY.  THE DRYSECTIONS
     LIE ABOVE THE FOLLOWING  1 AQUIFER CELLS (LAYER,ROW,COLUMN):
     (  2,  4,  5)  (

 PERIOD     2     TIME STEP     5     TIME STEP LENGTH  1.7520E+05
 PERIOD TIME  8.7600E+05     TOTAL SIMULATION TIME  3.5040E+06


                 HYDROLOGIC BUDGET SUMMARIES FOR SIMULATED LAKES
     (ALL FLUID FLUXES ARE VOLUMES ADDED TO THE LAKE DURING PRESENT TIME STEP)
     ----------------------------------------------------------------------------------------
 LAKE    STAGE         VOLUME     VOL. CHANGE      PRECIP     EVAPORATION    SPECIFIED RUNOFF     COMPUTED RUNOFF    TOTAL RUNOFF
   1  1.074500E+03  0.000000E+00  0.000000E+00  0.000000E+00  0.000000E+00   0.000000E+00          0.000000E+00      0.000000E+00

            GROUND WATER            SURFACE WATER        WATER          UZF INFIL.
 LAKE    INFLOW     OUTFLOW      INFLOW     OUTFLOW       USE        FROM LAKE
   1  0.0000E+00  0.0000E+00  0.0000E+00  0.0000E+00  0.0000E+00       0.0000E+00

      CONNECTED LAKE   TIME-STEP         STAGE-CHANGE          PERCENT
 LAKE    INFLUX      SURFACE AREA   TIME STEP  CUMULATIVE    DISCREPANCY
   1   0.0000E+00     0.0000E+00   0.0000E+00  0.0000E+00       0.000
 --------------------------------------------------------------------------------



            CUMULATIVE HYDROLOGIC BUDGET SUMMARIES FOR SIMULATED LAKES
     (ALL FLUID FLUXES ARE SUMS OF VOLUMES ADDED TO THE LAKE SINCE INITIAL TIME)
     ---------------------------------------------------------------------------
 LAKE       PRECIP       EVAP     SPECIFIED RUNOFF   COMPUTED RUNOFF   TOTAL RUNOFF
   1     0.0000E+00  0.0000E+00       0.0000E+00       0.0000E+00       0.0000E+00

            GROUND WATER            SURFACE WATER       UZF INFIL.
 LAKE    INFLOW     OUTFLOW      INFLOW     OUTFLOW     FROM LAKE
   1  0.0000E+00  0.0000E+00  0.0000E+00  0.0000E+00    0.0000E+00

         WATER    CONNECTED LAKE   CHANGE       PERCENT
 LAKE     USE         INFLUX       IN VOL.    DISCREPANCY
   1   0.0000E+00   0.0000E+00   0.0000E+00      0.000
 --------------------------------------------------------------------------------

 UBDSV3 SAVING "           GW ET" ON UNIT  61 AT TIME STEP     5, STRESS PERIOD   2
 UBDSV3 SAVING "    UZF RECHARGE" ON UNIT  61 AT TIME STEP     5, STRESS PERIOD   2
 UBDSV3 SAVING " SURFACE LEAKAGE" ON UNIT  61 AT TIME STEP     5, STRESS PERIOD   2
 UBDSV3 SAVING "       HORT+DUNN" ON UNIT  61 AT TIME STEP     5, STRESS PERIOD   2
 UBDSV3 SAVING "  STORAGE CHANGE" ON UNIT  61 AT TIME STEP     5, STRESS PERIOD   2


UNSATURATED ZONE PACKAGE VOLUMETRIC BUDGET FOR  TIME STEP     5 STRESS PERIOD    2
  ------------------------------------------------------------------------------



     CUMULATIVE VOLUMES      L**3       RATES FOR THIS TIME STEP      L**3/T
     ------------------                 ------------------------

           IN:                                      IN:
           ---                                      ---
        INFILTRATION =    61438260.0000          INFILTRATION =          67.6000

          OUT:                                     OUT:
          ----                                     ----
              UZF ET =   114401530.9287                UZF ET =         130.5394
        UZF RECHARGE =    40012359.1637          UZF RECHARGE =          41.3871

            IN - OUT =   -92975630.0924              IN - OUT =        -104.3265

          STORAGE:                                 STORAGE:
          --------                                 --------
      STORAGE CHANGE =   -92951614.6830        STORAGE CHANGE =        -104.3021

 PERCENT DISCREPANCY IS DIFFERENCE BETWEEN IN-OUT MINUS CHANGE IN STORAGE
 DIVIDED BY THE AVERAGE OF IN AND OUT TIMES 100

 PERCENT DISCREPANCY =          -0.00     PERCENT DISCREPANCY =          -0.01






1
  VOLUMETRIC BUDGET FOR ENTIRE MODEL AT END OF TIME STEP    5, STRESS PERIOD   2
  ------------------------------------------------------------------------------

     CUMULATIVE VOLUMES      L**3       RATES FOR THIS TIME STEP      L**3/T
     ------------------                 ------------------------

           IN:                                      IN:
           ---                                      ---
             STORAGE =     4585553.5000               STORAGE =           5.4981
       CONSTANT HEAD =           0.0000         CONSTANT HEAD =           0.0000
               WELLS =           0.0000                 WELLS =           0.0000
     HEAD DEP BOUNDS =      756117.1250       HEAD DEP BOUNDS =           0.2148
      STREAM LEAKAGE =   172024704.0000        STREAM LEAKAGE =          43.0093
       LAKE  SEEPAGE =           0.0000         LAKE  SEEPAGE =           0.0000
        UZF RECHARGE =    40012356.0000          UZF RECHARGE =          41.3871
               GW ET =           0.0000                 GW ET =           0.0000
     SURFACE LEAKAGE =           0.0000       SURFACE LEAKAGE =           0.0000

            TOTAL IN =   217378720.0000              TOTAL IN =          90.1094

          OUT:                                     OUT:
          ----                                     ----
             STORAGE =    38765176.0000               STORAGE =          41.5577
       CONSTANT HEAD =           0.0000         CONSTANT HEAD =           0.0000
               WELLS =    70080000.0000                 WELLS =          20.0000
     HEAD DEP BOUNDS =     1004592.1250       HEAD DEP BOUNDS =           0.2873
      STREAM LEAKAGE =    60798772.0000        STREAM LEAKAGE =          17.9047
       LAKE  SEEPAGE =           0.0000         LAKE  SEEPAGE =           0.0000
        UZF RECHARGE =           0.0000          UZF RECHARGE =           0.0000
               GW ET =    46730728.0000                 GW ET =          10.3593
     SURFACE LEAKAGE =           0.0000       SURFACE LEAKAGE =           0.0000

           TOTAL OUT =   217379264.0000             TOTAL OUT =          90.1091

            IN - OUT =        -544.0000              IN - OUT =       3.0518E-04

 PERCENT DISCREPANCY =          -0.00     PERCENT DISCREPANCY =           0.00






         TIME SUMMARY AT END OF TIME STEP    5 IN STRESS PERIOD    2
                    SECONDS     MINUTES      HOURS       DAYS        YEARS
                    -----------------------------------------------------------
   TIME STEP LENGTH 1.75200E+05  2920.0      48.667      2.0278     5.55175E-03
 STRESS PERIOD TIME 8.76000E+05  14600.      243.33      10.139     2.77588E-02
         TOTAL TIME 3.50400E+06  58400.      973.33      40.556     0.11104    
1
 
 SOLVING FOR HEAD 
                                                   Max.-Head-Change                         Max.-Flux-Residual
  Residual-Control   Outer-Iter.   Inner-Iter.     Column Row Layer    Maximum-Head-Change  Column Row Layer    Maximum-Flux-Residual          L2-NORM 
          0                 1           2             8    2     2       0.4772582645E-01       6    5    2        -0.1139515862E+01      0.4763651015E+01
          0                 2           2             6    5     2       0.3780955767E-02       6    5    2         0.1139464088E+00      0.1784549530E+00
          0                 3           1             6    5     2      -0.2163421937E-03       6    5    2        -0.6836830304E-02      0.9571194028E-02

    ------------------------------------------------
       NWT REQUIRED            3 OUTER ITERATIONS 
       AND A TOTAL OF          5 INNER ITERATIONS.
    ------------------------------------------------

 NO OUTPUT CONTROL FOR STRESS PERIOD    2   TIME STEP    6
 ..........LAKE  1 IS DRY..........
 
 SOLVING FOR HEAD 
                                                   Max.-Head-Change                         Max.-Flux-Residual
  Residual-Control   Outer-Iter.   Inner-Iter.     Column Row Layer    Maximum-Head-Change  Column Row Layer    Maximum-Flux-Residual          L2-NORM 
          0                 1           2             8    2     2       0.4771542982E-01       6    5    2        -0.1033951349E+01      0.4609955209E+01
          0                 2           2             6    5     2       0.3438917599E-02       6    5    2         0.1033908419E+00      0.1646578699E+00
          0                 3           1             6    5     2      -0.1963852986E-03       6    5    2        -0.6203488414E-02      0.8821836182E-02

    ------------------------------------------------
       NWT REQUIRED            3 OUTER ITERATIONS 
       AND A TOTAL OF          5 INNER ITERATIONS.
    ------------------------------------------------

 NO OUTPUT CONTROL FOR STRESS PERIOD    2   TIME STEP    7
 ..........LAKE  1 IS DRY..........
 
 SOLVING FOR HEAD 
                                                   Max.-Head-Change                         Max.-Flux-Residual
  Residual-Control   Outer-Iter.   Inner-Iter.     Column Row Layer    Maximum-Head-Change  Column Row Layer    Maximum-Flux-Residual          L2-NORM 
          0                 1           2             8    2     2       0.4770100586E-01       6    5    2         0.9840786017E+00      0.4357362094E+01
          0                 2           2             6    5     2      -0.2772476893E-02       6    5    2        -0.9063360294E-01      0.1242142124E+00
          0                 3           1             6    6     2      -0.6946960548E-04       6    6    2        -0.2335808271E-02      0.3195578436E-02

    ------------------------------------------------
       NWT REQUIRED            3 OUTER ITERATIONS 
       AND A TOTAL OF          5 INNER ITERATIONS.
    ------------------------------------------------

 NO OUTPUT CONTROL FOR STRESS PERIOD    2   TIME STEP    8
 ..........LAKE  1 IS DRY..........
 
 SOLVING FOR HEAD 
                                                   Max.-Head-Change                         Max.-Flux-Residual
  Residual-Control   Outer-Iter.   Inner-Iter.     Column Row Layer    Maximum-Head-Change  Column Row Layer    Maximum-Flux-Residual          L2-NORM 
          0                 1           2             8    2     2       0.4768341111E-01       6    5    2         0.8634031729E+00      0.4199878514E+01
          0                 2           2             6    5     2      -0.1435053312E-02       6    5    2        -0.4705536549E-01      0.8820513625E-01
          0                 3           1             6    5     2       0.2232834714E-04       6    5    2         0.7713762661E-03      0.1866278259E-02

    ------------------------------------------------
       NWT REQUIRED            3 OUTER ITERATIONS 
       AND A TOTAL OF          5 INNER ITERATIONS.
    ------------------------------------------------

 NO OUTPUT CONTROL FOR STRESS PERIOD    2   TIME STEP    9
 ..........LAKE  1 IS DRY..........
 
 SOLVING FOR HEAD 
                                                   Max.-Head-Change                         Max.-Flux-Residual
  Residual-Control   Outer-Iter.   Inner-Iter.     Column Row Layer    Maximum-Head-Change  Column Row Layer    Maximum-Flux-Residual          L2-NORM 
          0                 1           2             8    2     2       0.4764542777E-01       6    5    2         0.7087048355E+00      0.4060429032E+01
          0                 2           2             6    5     2      -0.1178146391E-02       6    5    2        -0.3841706921E-01      0.8167348013E-01
          0                 3           1             7   12     2       0.2202906077E-04       7   12    2         0.6405260324E-03      0.1914281373E-02

    ------------------------------------------------
       NWT REQUIRED            3 OUTER ITERATIONS 
       AND A TOTAL OF          5 INNER ITERATIONS.
    ------------------------------------------------

 OUTPUT CONTROL FOR STRESS PERIOD    2   TIME STEP   10
    PRINT BUDGET
    SAVE BUDGET

            WELLS   PERIOD    2   STEP  10
 WELL      1   LAYER   2   ROW     6   COL     4   RATE    -2.00000    
 WELL      2   LAYER   2   ROW     6   COL     5   RATE    -2.00000    
 WELL      3   LAYER   2   ROW     7   COL     4   RATE    -2.00000    
 WELL      4   LAYER   2   ROW     7   COL     5   RATE    -2.00000    
 WELL      5   LAYER   2   ROW     8   COL     4   RATE    -2.00000    
 WELL      6   LAYER   2   ROW     8   COL     5   RATE    -2.00000    
 WELL      7   LAYER   2   ROW     9   COL     4   RATE    -2.00000    
 WELL      8   LAYER   2   ROW     9   COL     5   RATE    -2.00000    
 WELL      9   LAYER   2   ROW    10   COL     4   RATE    -2.00000    
 WELL     10   LAYER   2   ROW    10   COL     5   RATE    -2.00000    

  HEAD DEP BOUNDS   PERIOD    2   STEP    10
 BOUNDARY      1   LAYER   2   ROW    13   COL     1   RATE   -0.288408    
 BOUNDARY      2   LAYER   2   ROW    14   COL     9   RATE    0.214321    



 STREAM LISTING     PERIOD      2   STEP       10

 LAYER ROW COL. STREAM  RCH.  FLOW INTO     FLOW TO   FLOW OUT OF   OVRLND.     DIRECT     STREAM       STREAM     STREAM     STREAM   STREAMBED  STREAMBED
                SEG.NO.  NO.  STRM. RCH.    AQUIFER    STRM. RCH.    RUNOFF     PRECIP       ET          HEAD       DEPTH      WIDTH   CONDCTNC.   GRADIENT

   2    1    1     1     1    2.6000E+01  1.9980E+00   2.4002E+01  0.000E+00  0.000E+00  0.000E+00  1.09423E+03  1.180E+00  1.306E+01  5.878E-01  1.133E+00
   2    2    2     1     2    2.4002E+01  3.6151E+00   2.0387E+01  0.000E+00  0.000E+00  0.000E+00  1.08920E+03  1.137E+00  1.248E+01  8.739E-01  1.379E+00
   2    3    3     1     3    2.0387E+01  2.8624E+00   1.7524E+01  0.000E+00  0.000E+00  0.000E+00  1.08350E+03  1.083E+00  1.168E+01  7.010E-01  1.361E+00
   2    3    4     1     4    1.7524E+01  2.4292E+00   1.5095E+01  0.000E+00  0.000E+00  0.000E+00  1.07844E+03  1.037E+00  1.084E+01  6.017E-01  1.346E+00
   2    4    5     2     1    5.0953E+00  2.6429E+00   2.4524E+00  0.000E+00  0.000E+00  0.000E+00  1.07232E+03  3.883E-01  1.200E+01  7.800E-01  1.129E+00
   2    5    6     2     2    2.4524E+00  1.9332E+00   5.1922E-01  0.000E+00  0.000E+00  0.000E+00  1.06673E+03  2.220E-01  1.200E+01  6.000E-01  1.074E+00
   2    6    6     2     3    5.1922E-01  5.1922E-01   0.0000E+00  0.000E+00  0.000E+00  0.000E+00  1.06182E+03  2.658E-02  1.200E+01  6.000E-01  1.009E+00
   2    7    6     2     4    0.0000E+00  0.0000E+00   0.0000E+00  0.000E+00  0.000E+00  0.000E+00  1.05708E+03  0.000E+00  1.200E+01  6.000E-01  1.000E+00
   2    8    6     2     5    0.0000E+00  0.0000E+00   0.0000E+00  0.000E+00  0.000E+00  0.000E+00  1.05236E+03  0.000E+00  1.200E+01  6.000E-01  1.000E+00
   2    3    5     3     1    1.0000E+01  2.8252E+00   7.1748E+00  0.000E+00  0.000E+00  0.000E+00  1.07555E+03  1.909E+00  9.636E+00  7.227E-01  1.955E+00
   2    3    6     3     2    7.1748E+00  2.4905E+00   4.6843E+00  0.000E+00  0.000E+00  0.000E+00  1.07264E+03  1.727E+00  8.909E+00  6.682E-01  1.864E+00
   2    3    7     3     3    4.6843E+00  1.9718E+00   2.7125E+00  0.000E+00  0.000E+00  0.000E+00  1.06987E+03  1.555E+00  8.218E+00  5.547E-01  1.777E+00
   2    4    8     3     4    2.7125E+00  2.2567E+00   4.5579E-01  0.000E+00  0.000E+00  0.000E+00  1.06682E+03  1.364E+00  7.455E+00  6.709E-01  1.682E+00
   2    5    8     3     5    4.5579E-01  4.5579E-01   0.0000E+00  0.000E+00  0.000E+00  0.000E+00  1.06362E+03  0.000E+00  6.655E+00  4.991E-01  1.582E+00
   2    6    8     3     6    0.0000E+00  0.0000E+00   0.0000E+00  0.000E+00  0.000E+00  0.000E+00  1.06055E+03  0.000E+00  6.145E+00  1.844E-01  1.000E+00
   2    5   10     4     1    1.0000E+01  9.0525E-01   9.0947E+00  0.000E+00  0.000E+00  0.000E+00  1.07835E+03  6.210E-01  1.000E+01  2.500E-01  1.207E+00
   2    5    9     4     2    9.0947E+00  1.7835E+00   7.3113E+00  0.000E+00  0.000E+00  0.000E+00  1.07148E+03  5.670E-01  1.000E+01  5.000E-01  1.189E+00
   2    6    8     4     3    7.3113E+00  1.2257E+00   6.0855E+00  0.000E+00  0.000E+00  0.000E+00  1.06368E+03  5.021E-01  1.000E+01  3.500E-01  1.167E+00
   2    6    8     5     1    6.0855E+00  1.4716E+00   4.6139E+00  0.000E+00  0.000E+00  0.000E+00  1.05854E+03  5.396E-01  1.039E+01  4.158E-01  1.180E+00
   2    7    7     5     2    4.6139E+00  1.4897E+00   3.1242E+00  0.000E+00  0.000E+00  0.000E+00  1.05398E+03  4.817E-01  8.557E+00  4.279E-01  1.161E+00
   2    8    7     5     3    3.1242E+00  8.2855E-01   2.2957E+00  0.000E+00  0.000E+00  0.000E+00  1.04968E+03  4.253E-01  6.911E+00  2.419E-01  1.142E+00
   2    8    6     5     4    2.2957E+00  4.9455E-01   1.8011E+00  0.000E+00  0.000E+00  0.000E+00  1.04664E+03  3.856E-01  5.843E+00  1.461E-01  1.129E+00
   2    9    6     6     1    1.8011E+00  1.8011E+00   0.0000E+00  0.000E+00  0.000E+00  0.000E+00  1.04278E+03  5.669E-02  1.200E+01  6.000E-01  1.019E+00
   2   10    7     6     2    0.0000E+00  0.0000E+00   0.0000E+00  0.000E+00  0.000E+00  0.000E+00  1.03818E+03  0.000E+00  1.200E+01  6.000E-01  1.000E+00
   2   11    7     6     3    0.0000E+00  0.0000E+00   0.0000E+00  0.000E+00  0.000E+00  0.000E+00  1.03364E+03  0.000E+00  1.200E+01  6.000E-01  1.000E+00
   2   12    7     6     4    0.0000E+00  0.0000E+00   0.0000E+00  0.000E+00  0.000E+00  0.000E+00  1.02909E+03  0.000E+00  1.200E+01  6.000E-01  5.665E-01
   2   13    7     6     5    0.0000E+00 -7.3130E-01   7.3130E-01  0.000E+00  0.000E+00  0.000E+00  1.02601E+03  9.679E-02  1.200E+01  2.400E-01 -1.016E+00
   2   14    9     7     1    1.5000E+02  2.8206E+00   1.4718E+02  0.000E+00  0.000E+00  0.000E+00  1.03986E+03  2.284E+00  5.528E+01  5.591E+00  1.682E-01
   2   13    8     7     2    1.4718E+02  3.9460E+00   1.4323E+02  0.000E+00  0.000E+00  0.000E+00  1.03477E+03  2.266E+00  5.520E+01  6.140E+00  2.142E-01
   2   13    7     7     3    1.4323E+02  3.4119E+00   1.3982E+02  0.000E+00  0.000E+00  0.000E+00  1.02967E+03  2.246E+00  5.511E+01  5.572E+00  2.041E-01
   2   13    6     8     1    1.4055E+02  1.5314E+00   1.3902E+02  0.000E+00  0.000E+00  0.000E+00  1.02462E+03  2.743E+00  3.978E+01  4.054E+00  1.259E-01
   2   13    5     8     2    1.3902E+02 -1.7503E+00   1.4077E+02  0.000E+00  0.000E+00  0.000E+00  1.01837E+03  2.744E+00  3.979E+01  4.055E+00 -1.439E-01
   2   13    4     8     3    1.4077E+02 -4.7939E+00   1.4557E+02  0.000E+00  0.000E+00  0.000E+00  1.01214E+03  2.768E+00  4.014E+01  4.090E+00 -3.907E-01
   2   13    3     8     4    1.4557E+02 -5.5574E+00   1.5112E+02  0.000E+00  0.000E+00  0.000E+00  1.00593E+03  2.805E+00  4.067E+01  4.145E+00 -4.469E-01
   2   13    2     8     5    1.5112E+02 -3.4162E+00   1.5454E+02  0.000E+00  0.000E+00  0.000E+00  9.99712E+02  2.837E+00  4.113E+01  4.191E+00 -2.717E-01
   2   13    1     8     6    1.5454E+02 -2.1742E+00   1.5671E+02  0.000E+00  0.000E+00  0.000E+00  9.94731E+02  2.856E+00  4.141E+01  2.532E+00 -2.862E-01
   2    4    5     9     1    0.0000E+00  0.0000E+00   0.0000E+00  0.000E+00  0.000E+00  0.000E+00  1.06000E+03  0.000E+00  2.000E+01  2.000E-03  1.000E+00
   2    4    5    10     1    0.0000E+00  0.0000E+00   0.0000E+00  0.000E+00  0.000E+00  0.000E+00  1.08000E+03  0.000E+00  2.000E+01  2.000E-03  1.000E+00



 ..........LAKE  1 IS DRY..........

     SECTIONS OF THE LAKE BOTTOM HAVE BECOME DRY.  THE DRYSECTIONS
     LIE ABOVE THE FOLLOWING  1 AQUIFER CELLS (LAYER,ROW,COLUMN):
     (  2,  4,  5)  (

 PERIOD     2     TIME STEP    10     TIME STEP LENGTH  1.7520E+05
 PERIOD TIME  1.7520E+06     TOTAL SIMULATION TIME  4.3800E+06


                 HYDROLOGIC BUDGET SUMMARIES FOR SIMULATED LAKES
     (ALL FLUID FLUXES ARE VOLUMES ADDED TO THE LAKE DURING PRESENT TIME STEP)
     ----------------------------------------------------------------------------------------
 LAKE    STAGE         VOLUME     VOL. CHANGE      PRECIP     EVAPORATION    SPECIFIED RUNOFF     COMPUTED RUNOFF    TOTAL RUNOFF
   1  1.074500E+03  0.000000E+00  0.000000E+00  0.000000E+00  0.000000E+00   0.000000E+00          0.000000E+00      0.000000E+00

            GROUND WATER            SURFACE WATER        WATER          UZF INFIL.
 LAKE    INFLOW     OUTFLOW      INFLOW     OUTFLOW       USE        FROM LAKE
   1  0.0000E+00  0.0000E+00  0.0000E+00  0.0000E+00  0.0000E+00       0.0000E+00

      CONNECTED LAKE   TIME-STEP         STAGE-CHANGE          PERCENT
 LAKE    INFLUX      SURFACE AREA   TIME STEP  CUMULATIVE    DISCREPANCY
   1   0.0000E+00     0.0000E+00   0.0000E+00  0.0000E+00       0.000
 --------------------------------------------------------------------------------



            CUMULATIVE HYDROLOGIC BUDGET SUMMARIES FOR SIMULATED LAKES
     (ALL FLUID FLUXES ARE SUMS OF VOLUMES ADDED TO THE LAKE SINCE INITIAL TIME)
     ---------------------------------------------------------------------------
 LAKE       PRECIP       EVAP     SPECIFIED RUNOFF   COMPUTED RUNOFF   TOTAL RUNOFF
   1     0.0000E+00  0.0000E+00       0.0000E+00       0.0000E+00       0.0000E+00

            GROUND WATER            SURFACE WATER       UZF INFIL.
 LAKE    INFLOW     OUTFLOW      INFLOW     OUTFLOW     FROM LAKE
   1  0.0000E+00  0.0000E+00  0.0000E+00  0.0000E+00    0.0000E+00

         WATER    CONNECTED LAKE   CHANGE       PERCENT
 LAKE     USE         INFLUX       IN VOL.    DISCREPANCY
   1   0.0000E+00   0.0000E+00   0.0000E+00      0.000
 --------------------------------------------------------------------------------

 UBDSV3 SAVING "           GW ET" ON UNIT  61 AT TIME STEP    10, STRESS PERIOD   2
 UBDSV3 SAVING "    UZF RECHARGE" ON UNIT  61 AT TIME STEP    10, STRESS PERIOD   2
 UBDSV3 SAVING " SURFACE LEAKAGE" ON UNIT  61 AT TIME STEP    10, STRESS PERIOD   2
 UBDSV3 SAVING "       HORT+DUNN" ON UNIT  61 AT TIME STEP    10, STRESS PERIOD   2
 UBDSV3 SAVING "  STORAGE CHANGE" ON UNIT  61 AT TIME STEP    10, STRESS PERIOD   2


UNSATURATED ZONE PACKAGE VOLUMETRIC BUDGET FOR  TIME STEP    10 STRESS PERIOD    2
  ------------------------------------------------------------------------------



     CUMULATIVE VOLUMES      L**3       RATES FOR THIS TIME STEP      L**3/T
     ------------------                 ------------------------

           IN:                                      IN:
           ---                                      ---
        INFILTRATION =   120655860.0000          INFILTRATION =          67.6000

          OUT:                                     OUT:
          ----                                     ----
              UZF ET =   228702302.4128                UZF ET =         130.4437
        UZF RECHARGE =    74159926.4277          UZF RECHARGE =          37.3116

            IN - OUT =  -182206368.8406              IN - OUT =        -100.1553

          STORAGE:                                 STORAGE:
          --------                                 --------
      STORAGE CHANGE =  -182169797.8153        STORAGE CHANGE =        -100.1403

 PERCENT DISCREPANCY IS DIFFERENCE BETWEEN IN-OUT MINUS CHANGE IN STORAGE
 DIVIDED BY THE AVERAGE OF IN AND OUT TIMES 100

 PERCENT DISCREPANCY =          -0.00     PERCENT DISCREPANCY =          -0.01






1
  VOLUMETRIC BUDGET FOR ENTIRE MODEL AT END OF TIME STEP   10, STRESS PERIOD   2
  ------------------------------------------------------------------------------

     CUMULATIVE VOLUMES      L**3       RATES FOR THIS TIME STEP      L**3/T
     ------------------                 ------------------------

           IN:                                      IN:
           ---                                      ---
             STORAGE =     7075144.0000               STORAGE =           0.9386
       CONSTANT HEAD =           0.0000         CONSTANT HEAD =           0.0000
               WELLS =           0.0000                 WELLS =           0.0000
     HEAD DEP BOUNDS =      943990.3125       HEAD DEP BOUNDS =           0.2143
      STREAM LEAKAGE =   212130272.0000        STREAM LEAKAGE =          47.7098
       LAKE  SEEPAGE =           0.0000         LAKE  SEEPAGE =           0.0000
        UZF RECHARGE =    74159920.0000          UZF RECHARGE =          37.3116
               GW ET =           0.0000                 GW ET =           0.0000
     SURFACE LEAKAGE =           0.0000       SURFACE LEAKAGE =           0.0000

            TOTAL IN =   294309312.0000              TOTAL IN =          86.1744

          OUT:                                     OUT:
          ----                                     ----
             STORAGE =    72834640.0000               STORAGE =          37.0326
       CONSTANT HEAD =           0.0000         CONSTANT HEAD =           0.0000
               WELLS =    87600000.0000                 WELLS =          20.0000
     HEAD DEP BOUNDS =     1256872.0000       HEAD DEP BOUNDS =           0.2884
      STREAM LEAKAGE =    76773296.0000        STREAM LEAKAGE =          18.4233
       LAKE  SEEPAGE =           0.0000         LAKE  SEEPAGE =           0.0000
        UZF RECHARGE =           0.0000          UZF RECHARGE =           0.0000
               GW ET =    55844908.0000                 GW ET =          10.4300
     SURFACE LEAKAGE =           0.0000       SURFACE LEAKAGE =           0.0000

           TOTAL OUT =   294309728.0000             TOTAL OUT =          86.1743

            IN - OUT =        -416.0000              IN - OUT =       5.3406E-05

 PERCENT DISCREPANCY =          -0.00     PERCENT DISCREPANCY =           0.00






         TIME SUMMARY AT END OF TIME STEP   10 IN STRESS PERIOD    2
                    SECONDS     MINUTES      HOURS       DAYS        YEARS
                    -----------------------------------------------------------
   TIME STEP LENGTH 1.75200E+05  2920.0      48.667      2.0278     5.55175E-03
 STRESS PERIOD TIME 1.75200E+06  29200.      486.67      20.278     5.55175E-02
         TOTAL TIME 4.38000E+06  73000.      1216.7      50.694     0.13879    
1
 
 SOLVING FOR HEAD 
                                                   Max.-Head-Change                         Max.-Flux-Residual
  Residual-Control   Outer-Iter.   Inner-Iter.     Column Row Layer    Maximum-Head-Change  Column Row Layer    Maximum-Flux-Residual          L2-NORM 
          0                 1           2             8    2     2       0.4758533492E-01       8    2    2         0.6186983831E+00      0.3973174095E+01
          0                 2           1             6    5     2      -0.9552457966E-03       6    5    2        -0.3136534227E-01      0.7793203603E-01

    ------------------------------------------------
       NWT REQUIRED            2 OUTER ITERATIONS 
       AND A TOTAL OF          3 INNER ITERATIONS.
    ------------------------------------------------

 NO OUTPUT CONTROL FOR STRESS PERIOD    2   TIME STEP   11
 ..........LAKE  1 IS DRY..........
 
 SOLVING FOR HEAD 
                                                   Max.-Head-Change                         Max.-Flux-Residual
  Residual-Control   Outer-Iter.   Inner-Iter.     Column Row Layer    Maximum-Head-Change  Column Row Layer    Maximum-Flux-Residual          L2-NORM 
          0                 1           2             8    2     2       0.4750689037E-01       8    2    2         0.6178869180E+00      0.3896214491E+01
          0                 2           1             6    6     2       0.1026163851E-02       6    6    2         0.3251620885E-01      0.7760815273E-01
          0                 3           1             7   12     2       0.2628946571E-04       3   12    2         0.7585597323E-03      0.2199526085E-02

    ------------------------------------------------
       NWT REQUIRED            3 OUTER ITERATIONS 
       AND A TOTAL OF          4 INNER ITERATIONS.
    ------------------------------------------------

 NO OUTPUT CONTROL FOR STRESS PERIOD    2   TIME STEP   12
 ..........LAKE  1 IS DRY..........
 
 SOLVING FOR HEAD 
                                                   Max.-Head-Change                         Max.-Flux-Residual
  Residual-Control   Outer-Iter.   Inner-Iter.     Column Row Layer    Maximum-Head-Change  Column Row Layer    Maximum-Flux-Residual          L2-NORM 
          0                 1           2             8    2     2       0.4741367072E-01       8    2    2         0.6168467182E+00      0.3787458717E+01
          0                 2           1             8    4     2      -0.9298367750E-03       6    6    2         0.2746802924E-01      0.7503926736E-01

    ------------------------------------------------
       NWT REQUIRED            2 OUTER ITERATIONS 
       AND A TOTAL OF          3 INNER ITERATIONS.
    ------------------------------------------------

 NO OUTPUT CONTROL FOR STRESS PERIOD    2   TIME STEP   13
 ..........LAKE  1 IS DRY..........
 
 SOLVING FOR HEAD 
                                                   Max.-Head-Change                         Max.-Flux-Residual
  Residual-Control   Outer-Iter.   Inner-Iter.     Column Row Layer    Maximum-Head-Change  Column Row Layer    Maximum-Flux-Residual          L2-NORM 
          0                 1           2             8    2     2       0.4730280365E-01       8    2    2         0.6156127779E+00      0.3661382475E+01
          0                 2           1             8    4     2      -0.9085272150E-03       6    6    2         0.2335026412E-01      0.7336783862E-01

    ------------------------------------------------
       NWT REQUIRED            2 OUTER ITERATIONS 
       AND A TOTAL OF          3 INNER ITERATIONS.
    ------------------------------------------------

 NO OUTPUT CONTROL FOR STRESS PERIOD    2   TIME STEP   14
 ..........LAKE  1 IS DRY..........
 
 SOLVING FOR HEAD 
                                                   Max.-Head-Change                         Max.-Flux-Residual
  Residual-Control   Outer-Iter.   Inner-Iter.     Column Row Layer    Maximum-Head-Change  Column Row Layer    Maximum-Flux-Residual          L2-NORM 
          0                 1           2             8    2     2       0.4717946712E-01       8    2    2         0.6141475877E+00      0.3555165742E+01
          0                 2           1             8    4     2      -0.8306234472E-03       6    6    2         0.1996360256E-01      0.7210544111E-01

    ------------------------------------------------
       NWT REQUIRED            2 OUTER ITERATIONS 
       AND A TOTAL OF          3 INNER ITERATIONS.
    ------------------------------------------------

 OUTPUT CONTROL FOR STRESS PERIOD    2   TIME STEP   15
    PRINT BUDGET
    PRINT HEAD FOR ALL LAYERS
    SAVE HEAD FOR ALL LAYERS
    SAVE BUDGET

            WELLS   PERIOD    2   STEP  15
 WELL      1   LAYER   2   ROW     6   COL     4   RATE    -2.00000    
 WELL      2   LAYER   2   ROW     6   COL     5   RATE    -2.00000    
 WELL      3   LAYER   2   ROW     7   COL     4   RATE    -2.00000    
 WELL      4   LAYER   2   ROW     7   COL     5   RATE    -2.00000    
 WELL      5   LAYER   2   ROW     8   COL     4   RATE    -2.00000    
 WELL      6   LAYER   2   ROW     8   COL     5   RATE    -2.00000    
 WELL      7   LAYER   2   ROW     9   COL     4   RATE    -2.00000    
 WELL      8   LAYER   2   ROW     9   COL     5   RATE    -2.00000    
 WELL      9   LAYER   2   ROW    10   COL     4   RATE    -2.00000    
 WELL     10   LAYER   2   ROW    10   COL     5   RATE    -2.00000    

  HEAD DEP BOUNDS   PERIOD    2   STEP    15
 BOUNDARY      1   LAYER   2   ROW    13   COL     1   RATE   -0.289189    
 BOUNDARY      2   LAYER   2   ROW    14   COL     9   RATE    0.214120    



 STREAM LISTING     PERIOD      2   STEP       15

 LAYER ROW COL. STREAM  RCH.  FLOW INTO     FLOW TO   FLOW OUT OF   OVRLND.     DIRECT     STREAM       STREAM     STREAM     STREAM   STREAMBED  STREAMBED
                SEG.NO.  NO.  STRM. RCH.    AQUIFER    STRM. RCH.    RUNOFF     PRECIP       ET          HEAD       DEPTH      WIDTH   CONDCTNC.   GRADIENT

   2    1    1     1     1    2.5000E+01  1.9559E+00   2.3044E+01  0.000E+00  0.000E+00  0.000E+00  1.09421E+03  1.165E+00  1.287E+01  5.790E-01  1.126E+00
   2    2    2     1     2    2.3044E+01  3.5443E+00   1.9500E+01  0.000E+00  0.000E+00  0.000E+00  1.08918E+03  1.122E+00  1.228E+01  8.599E-01  1.374E+00
   2    3    3     1     3    1.9500E+01  2.7880E+00   1.6712E+01  0.000E+00  0.000E+00  0.000E+00  1.08349E+03  1.069E+00  1.142E+01  6.852E-01  1.356E+00
   2    3    4     1     4    1.6712E+01  2.3622E+00   1.4350E+01  0.000E+00  0.000E+00  0.000E+00  1.07843E+03  1.022E+00  1.058E+01  5.873E-01  1.341E+00
   2    4    5     2     1    4.3496E+00  2.6064E+00   1.7432E+00  0.000E+00  0.000E+00  0.000E+00  1.07228E+03  3.415E-01  1.200E+01  7.800E-01  1.114E+00
   2    5    6     2     2    1.7432E+00  1.7432E+00   0.0000E+00  0.000E+00  0.000E+00  0.000E+00  1.06656E+03  5.497E-02  1.200E+01  6.000E-01  1.018E+00
   2    6    6     2     3    0.0000E+00  0.0000E+00   0.0000E+00  0.000E+00  0.000E+00  0.000E+00  1.06179E+03  0.000E+00  1.200E+01  6.000E-01  1.000E+00
   2    7    6     2     4    0.0000E+00  0.0000E+00   0.0000E+00  0.000E+00  0.000E+00  0.000E+00  1.05708E+03  0.000E+00  1.200E+01  6.000E-01  1.000E+00
   2    8    6     2     5    0.0000E+00  0.0000E+00   0.0000E+00  0.000E+00  0.000E+00  0.000E+00  1.05236E+03  0.000E+00  1.200E+01  6.000E-01  1.000E+00
   2    3    5     3     1    1.0000E+01  2.8252E+00   7.1748E+00  0.000E+00  0.000E+00  0.000E+00  1.07555E+03  1.909E+00  9.636E+00  7.227E-01  1.955E+00
   2    3    6     3     2    7.1748E+00  2.4905E+00   4.6843E+00  0.000E+00  0.000E+00  0.000E+00  1.07264E+03  1.727E+00  8.909E+00  6.682E-01  1.864E+00
   2    3    7     3     3    4.6843E+00  1.9718E+00   2.7125E+00  0.000E+00  0.000E+00  0.000E+00  1.06987E+03  1.555E+00  8.218E+00  5.547E-01  1.777E+00
   2    4    8     3     4    2.7125E+00  2.2567E+00   4.5579E-01  0.000E+00  0.000E+00  0.000E+00  1.06682E+03  1.364E+00  7.455E+00  6.709E-01  1.682E+00
   2    5    8     3     5    4.5579E-01  4.5579E-01   0.0000E+00  0.000E+00  0.000E+00  0.000E+00  1.06362E+03  0.000E+00  6.655E+00  4.991E-01  1.582E+00
   2    6    8     3     6    0.0000E+00  0.0000E+00   0.0000E+00  0.000E+00  0.000E+00  0.000E+00  1.06055E+03  0.000E+00  6.145E+00  1.844E-01  1.000E+00
   2    5   10     4     1    1.0000E+01  9.0525E-01   9.0947E+00  0.000E+00  0.000E+00  0.000E+00  1.07835E+03  6.210E-01  1.000E+01  2.500E-01  1.207E+00
   2    5    9     4     2    9.0947E+00  1.7835E+00   7.3113E+00  0.000E+00  0.000E+00  0.000E+00  1.07148E+03  5.670E-01  1.000E+01  5.000E-01  1.189E+00
   2    6    8     4     3    7.3113E+00  1.2257E+00   6.0855E+00  0.000E+00  0.000E+00  0.000E+00  1.06368E+03  5.021E-01  1.000E+01  3.500E-01  1.167E+00
   2    6    8     5     1    6.0855E+00  1.4716E+00   4.6139E+00  0.000E+00  0.000E+00  0.000E+00  1.05854E+03  5.396E-01  1.039E+01  4.158E-01  1.180E+00
   2    7    7     5     2    4.6139E+00  1.4897E+00   3.1242E+00  0.000E+00  0.000E+00  0.000E+00  1.05398E+03  4.817E-01  8.557E+00  4.279E-01  1.161E+00
   2    8    7     5     3    3.1242E+00  8.2855E-01   2.2957E+00  0.000E+00  0.000E+00  0.000E+00  1.04968E+03  4.253E-01  6.911E+00  2.419E-01  1.142E+00
   2    8    6     5     4    2.2957E+00  4.9455E-01   1.8011E+00  0.000E+00  0.000E+00  0.000E+00  1.04664E+03  3.856E-01  5.843E+00  1.461E-01  1.129E+00
   2    9    6     6     1    1.8011E+00  1.8011E+00   0.0000E+00  0.000E+00  0.000E+00  0.000E+00  1.04278E+03  5.669E-02  1.200E+01  6.000E-01  1.019E+00
   2   10    7     6     2    0.0000E+00  0.0000E+00   0.0000E+00  0.000E+00  0.000E+00  0.000E+00  1.03818E+03  0.000E+00  1.200E+01  6.000E-01  1.000E+00
   2   11    7     6     3    0.0000E+00  0.0000E+00   0.0000E+00  0.000E+00  0.000E+00  0.000E+00  1.03364E+03  0.000E+00  1.200E+01  6.000E-01  1.000E+00
   2   12    7     6     4    0.0000E+00  0.0000E+00   0.0000E+00  0.000E+00  0.000E+00  0.000E+00  1.02909E+03  0.000E+00  1.200E+01  6.000E-01  5.536E-01
   2   13    7     6     5    0.0000E+00 -7.3704E-01   7.3704E-01  0.000E+00  0.000E+00  0.000E+00  1.02601E+03  9.724E-02  1.200E+01  2.400E-01 -1.024E+00
   2   14    9     7     1    1.5000E+02  2.7914E+00   1.4721E+02  0.000E+00  0.000E+00  0.000E+00  1.03986E+03  2.284E+00  5.528E+01  5.591E+00  1.664E-01
   2   13    8     7     2    1.4721E+02  3.9031E+00   1.4331E+02  0.000E+00  0.000E+00  0.000E+00  1.03477E+03  2.266E+00  5.520E+01  6.141E+00  2.119E-01
   2   13    7     7     3    1.4331E+02  3.2803E+00   1.4003E+02  0.000E+00  0.000E+00  0.000E+00  1.02967E+03  2.247E+00  5.511E+01  5.573E+00  1.962E-01
   2   13    6     8     1    1.4076E+02  1.3899E+00   1.3937E+02  0.000E+00  0.000E+00  0.000E+00  1.02462E+03  2.745E+00  3.981E+01  4.057E+00  1.142E-01
   2   13    5     8     2    1.3937E+02 -1.8357E+00   1.4121E+02  0.000E+00  0.000E+00  0.000E+00  1.01837E+03  2.747E+00  3.983E+01  4.059E+00 -1.508E-01
   2   13    4     8     3    1.4121E+02 -4.8709E+00   1.4608E+02  0.000E+00  0.000E+00  0.000E+00  1.01215E+03  2.771E+00  4.019E+01  4.095E+00 -3.965E-01
   2   13    3     8     4    1.4608E+02 -5.6335E+00   1.5171E+02  0.000E+00  0.000E+00  0.000E+00  1.00593E+03  2.809E+00  4.073E+01  4.151E+00 -4.524E-01
   2   13    2     8     5    1.5171E+02 -3.4587E+00   1.5517E+02  0.000E+00  0.000E+00  0.000E+00  9.99716E+02  2.841E+00  4.119E+01  4.198E+00 -2.746E-01
   2   13    1     8     6    1.5517E+02 -2.2183E+00   1.5739E+02  0.000E+00  0.000E+00  0.000E+00  9.94736E+02  2.861E+00  4.148E+01  2.536E+00 -2.916E-01
   2    4    5     9     1    0.0000E+00  0.0000E+00   0.0000E+00  0.000E+00  0.000E+00  0.000E+00  1.06000E+03  0.000E+00  2.000E+01  2.000E-03  1.000E+00
   2    4    5    10     1    0.0000E+00  0.0000E+00   0.0000E+00  0.000E+00  0.000E+00  0.000E+00  1.08000E+03  0.000E+00  2.000E+01  2.000E-03  1.000E+00



 ..........LAKE  1 IS DRY..........

     SECTIONS OF THE LAKE BOTTOM HAVE BECOME DRY.  THE DRYSECTIONS
     LIE ABOVE THE FOLLOWING  1 AQUIFER CELLS (LAYER,ROW,COLUMN):
     (  2,  4,  5)  (

 PERIOD     2     TIME STEP    15     TIME STEP LENGTH  1.7520E+05
 PERIOD TIME  2.6280E+06     TOTAL SIMULATION TIME  5.2560E+06


                 HYDROLOGIC BUDGET SUMMARIES FOR SIMULATED LAKES
     (ALL FLUID FLUXES ARE VOLUMES ADDED TO THE LAKE DURING PRESENT TIME STEP)
     ----------------------------------------------------------------------------------------
 LAKE    STAGE         VOLUME     VOL. CHANGE      PRECIP     EVAPORATION    SPECIFIED RUNOFF     COMPUTED RUNOFF    TOTAL RUNOFF
   1  1.074500E+03  0.000000E+00  0.000000E+00  0.000000E+00  0.000000E+00   0.000000E+00          0.000000E+00      0.000000E+00

            GROUND WATER            SURFACE WATER        WATER          UZF INFIL.
 LAKE    INFLOW     OUTFLOW      INFLOW     OUTFLOW       USE        FROM LAKE
   1  0.0000E+00  0.0000E+00  0.0000E+00  0.0000E+00  0.0000E+00       0.0000E+00

      CONNECTED LAKE   TIME-STEP         STAGE-CHANGE          PERCENT
 LAKE    INFLUX      SURFACE AREA   TIME STEP  CUMULATIVE    DISCREPANCY
   1   0.0000E+00     0.0000E+00   0.0000E+00  0.0000E+00       0.000
 --------------------------------------------------------------------------------



            CUMULATIVE HYDROLOGIC BUDGET SUMMARIES FOR SIMULATED LAKES
     (ALL FLUID FLUXES ARE SUMS OF VOLUMES ADDED TO THE LAKE SINCE INITIAL TIME)
     ---------------------------------------------------------------------------
 LAKE       PRECIP       EVAP     SPECIFIED RUNOFF   COMPUTED RUNOFF   TOTAL RUNOFF
   1     0.0000E+00  0.0000E+00       0.0000E+00       0.0000E+00       0.0000E+00

            GROUND WATER            SURFACE WATER       UZF INFIL.
 LAKE    INFLOW     OUTFLOW      INFLOW     OUTFLOW     FROM LAKE
   1  0.0000E+00  0.0000E+00  0.0000E+00  0.0000E+00    0.0000E+00

         WATER    CONNECTED LAKE   CHANGE       PERCENT
 LAKE     USE         INFLUX       IN VOL.    DISCREPANCY
   1   0.0000E+00   0.0000E+00   0.0000E+00      0.000
 --------------------------------------------------------------------------------

 UBDSV3 SAVING "           GW ET" ON UNIT  61 AT TIME STEP    15, STRESS PERIOD   2
 UBDSV3 SAVING "    UZF RECHARGE" ON UNIT  61 AT TIME STEP    15, STRESS PERIOD   2
 UBDSV3 SAVING " SURFACE LEAKAGE" ON UNIT  61 AT TIME STEP    15, STRESS PERIOD   2
 UBDSV3 SAVING "       HORT+DUNN" ON UNIT  61 AT TIME STEP    15, STRESS PERIOD   2
 UBDSV3 SAVING "  STORAGE CHANGE" ON UNIT  61 AT TIME STEP    15, STRESS PERIOD   2


UNSATURATED ZONE PACKAGE VOLUMETRIC BUDGET FOR  TIME STEP    15 STRESS PERIOD    2
  ------------------------------------------------------------------------------



     CUMULATIVE VOLUMES      L**3       RATES FOR THIS TIME STEP      L**3/T
     ------------------                 ------------------------

           IN:                                      IN:
           ---                                      ---
        INFILTRATION =   179873460.0000          INFILTRATION =          67.6000

          OUT:                                     OUT:
          ----                                     ----
              UZF ET =   342389970.4102                UZF ET =         128.5233
        UZF RECHARGE =   105142522.2655          UZF RECHARGE =          33.4508

            IN - OUT =  -267659032.6757              IN - OUT =         -94.3741

          STORAGE:                                 STORAGE:
          --------                                 --------
      STORAGE CHANGE =  -267605442.7707        STORAGE CHANGE =         -94.3572

 PERCENT DISCREPANCY IS DIFFERENCE BETWEEN IN-OUT MINUS CHANGE IN STORAGE
 DIVIDED BY THE AVERAGE OF IN AND OUT TIMES 100

 PERCENT DISCREPANCY =          -0.00     PERCENT DISCREPANCY =          -0.01






1
              HEAD IN LAYER   1 AT END OF TIME STEP    15 IN STRESS PERIOD    2
  -----------------------------------------------------------------------------

           1       2       3       4       5       6       7       8       9      10
 ...................................................................................
   1  6999.00 6999.00 6999.00 6999.00 6999.00 6999.00 6999.00 6999.00 6999.00 6999.00
   2  6999.00 6999.00 6999.00 6999.00 6999.00 6999.00 6999.00 6999.00 6999.00 6999.00
   3  6999.00 6999.00 6999.00 6999.00 6999.00 6999.00 6999.00 6999.00 6999.00 6999.00
   4  6999.00 6999.00 6999.00 6999.00 6999.00 6999.00 6999.00 6999.00 6999.00 6999.00
   5  6999.00 6999.00 6999.00 6999.00 6999.00 6999.00 6999.00 6999.00 6999.00 6999.00
   6  6999.00 6999.00 6999.00 6999.00 6999.00 6999.00 6999.00 6999.00 6999.00 6999.00
   7  6999.00 6999.00 6999.00 6999.00 6999.00 6999.00 6999.00 6999.00 6999.00 6999.00
   8  6999.00 6999.00 6999.00 6999.00 6999.00 6999.00 6999.00 6999.00 6999.00 6999.00
   9  6999.00 6999.00 6999.00 6999.00 6999.00 6999.00 6999.00 6999.00 6999.00 6999.00
  10  6999.00 6999.00 6999.00 6999.00 6999.00 6999.00 6999.00 6999.00 6999.00 6999.00
  11  6999.00 6999.00 6999.00 6999.00 6999.00 6999.00 6999.00 6999.00 6999.00 6999.00
  12  6999.00 6999.00 6999.00 6999.00 6999.00 6999.00 6999.00 6999.00 6999.00 6999.00
  13  6999.00 6999.00 6999.00 6999.00 6999.00 6999.00 6999.00 6999.00 6999.00 6999.00
  14  6999.00 6999.00 6999.00 6999.00 6999.00 6999.00 6999.00 6999.00 6999.00 6999.00
  15  6999.00 6999.00 6999.00 6999.00 6999.00 6999.00 6999.00 6999.00 6999.00 6999.00
1
              HEAD IN LAYER   2 AT END OF TIME STEP    15 IN STRESS PERIOD    2
  -----------------------------------------------------------------------------

           1       2       3       4       5       6       7       8       9      10
 ...................................................................................
   1  1090.83 1085.46 6999.00 6999.00 6999.00 6999.00 6999.00 6999.00 6999.00 6999.00
   2  1085.81 1079.60 1072.73 6999.00 6999.00 1062.80 1062.80 1062.37 6999.00 6999.00
   3  6999.00 1069.22 1065.45 1061.55 1061.77 1062.19 1062.66 1061.65 6999.00 6999.00
   4  1057.16 1059.63 1058.65 1055.33 1054.16 1053.35 1054.94 1058.96 1057.55 6999.00
   5  1052.96 1052.52 1051.45 1049.56 1049.33 1049.74 1049.86 1051.60 1054.93 1057.15
   6  1048.79 1047.23 1045.67 1044.06 1044.31 1045.80 1047.18 1049.37 1052.07 1056.04
   7  1045.77 1042.39 1040.68 1039.26 1039.88 1041.79 1043.90 1046.16 1048.47 6999.00
   8  6999.00 1037.28 1036.08 1034.88 1035.62 1037.65 1039.51 1042.80 1043.59 6999.00
   9  6999.00 1031.62 1031.18 1030.46 1031.40 1033.63 1034.84 1037.02 1038.69 6999.00
  10  6999.00 1025.99 1026.28 1026.41 1027.68 1029.77 1031.00 1032.91 1034.81 1035.20
  11  6999.00 1019.26 1020.33 1022.78 1024.76 1026.99 1028.67 1030.84 1033.59 6999.00
  12  1003.03 1009.44 1013.54 1017.93 1021.50 1024.90 1027.43 1030.71 1034.46 6999.00
  13   995.61 1000.54 1007.29 1013.34 1018.82 1024.28 1029.08 1034.13 1036.67 6999.00
  14  6999.00 1006.52 1009.77 1014.56 1019.58 1024.50 1029.73 1035.16 1039.37 6999.00
  15  6999.00 6999.00 1013.40 1016.26 1020.02 1023.45 6999.00 6999.00 6999.00 6999.00

 HEAD WILL BE SAVED ON UNIT   58 AT END OF TIME STEP   15, STRESS PERIOD    2
1
  VOLUMETRIC BUDGET FOR ENTIRE MODEL AT END OF TIME STEP   15, STRESS PERIOD   2
  ------------------------------------------------------------------------------

     CUMULATIVE VOLUMES      L**3       RATES FOR THIS TIME STEP      L**3/T
     ------------------                 ------------------------

           IN:                                      IN:
           ---                                      ---
             STORAGE =     7906790.0000               STORAGE =           0.7925
       CONSTANT HEAD =           0.0000         CONSTANT HEAD =           0.0000
               WELLS =           0.0000                 WELLS =           0.0000
     HEAD DEP BOUNDS =     1131621.0000       HEAD DEP BOUNDS =           0.2141
      STREAM LEAKAGE =   252996688.0000        STREAM LEAKAGE =          46.3647
       LAKE  SEEPAGE =           0.0000         LAKE  SEEPAGE =           0.0000
        UZF RECHARGE =   105142520.0000          UZF RECHARGE =          33.4508
               GW ET =           0.0000                 GW ET =           0.0000
     SURFACE LEAKAGE =           0.0000       SURFACE LEAKAGE =           0.0000

            TOTAL IN =   367177632.0000              TOTAL IN =          80.8221

          OUT:                                     OUT:
          ----                                     ----
             STORAGE =   102396352.0000               STORAGE =          31.1503
       CONSTANT HEAD =           0.0000         CONSTANT HEAD =           0.0000
               WELLS =   105120000.0000                 WELLS =          20.0000
     HEAD DEP BOUNDS =     1509948.0000       HEAD DEP BOUNDS =           0.2892
      STREAM LEAKAGE =    93094584.0000        STREAM LEAKAGE =          18.7541
       LAKE  SEEPAGE =           0.0000         LAKE  SEEPAGE =           0.0000
        UZF RECHARGE =           0.0000          UZF RECHARGE =           0.0000
               GW ET =    65050344.0000                 GW ET =          10.6178
     SURFACE LEAKAGE =           0.0000       SURFACE LEAKAGE =           0.0000

           TOTAL OUT =   367171232.0000             TOTAL OUT =          80.8113

            IN - OUT =        6400.0000              IN - OUT =       1.0788E-02

 PERCENT DISCREPANCY =           0.00     PERCENT DISCREPANCY =           0.01






         TIME SUMMARY AT END OF TIME STEP   15 IN STRESS PERIOD    2
                    SECONDS     MINUTES      HOURS       DAYS        YEARS
                    -----------------------------------------------------------
   TIME STEP LENGTH 1.75200E+05  2920.0      48.667      2.0278     5.55175E-03
 STRESS PERIOD TIME 2.62800E+06  43800.      730.00      30.417     8.32763E-02
         TOTAL TIME 5.25600E+06  87600.      1460.0      60.833     0.16655    
1
1
                            STRESS PERIOD NO.    3, LENGTH =   2628000.    
                            -----------------------------------------------

                              NUMBER OF TIME STEPS =    15

                               MULTIPLIER FOR DELT =     1.000

                            INITIAL TIME STEP SIZE =   175200.0    

 WELL NO.  LAYER   ROW   COL   STRESS RATE         
 --------------------------------------------------
      1      2      6      4      -1.000    
      2      2      6      5      -1.000    
      3      2      7      4      -1.000    
      4      2      7      5      -1.000    
      5      2      8      4      -1.000    
      6      2      8      5      -1.000    
      7      2      9      4      -1.000    
      8      2      9      5      -1.000    
      9      2     10      4      -1.000    
     10      2     10      5      -1.000    

     10 WELLS

 REUSING NON-PARAMETER GHB CELLS FROM LAST STRESS PERIOD

      2 GHB CELLS

 REUSING STREAM SEGMENT DATA FROM LAST STRESS PERIOD



            AREAL INFILTRATION RATE
 READING ON UNIT   19 WITH FORMAT: (10F4.0)            

            1           2           3           4           5           6           7           8           9          10
 ........................................................................................................................
   1   1.0000E-08  2.0000E-08   0.000       0.000       0.000       0.000       0.000       0.000       0.000       0.000    
   2   2.0000E-08  1.0000E-08  2.0000E-08   0.000       0.000      8.0000E-08  8.0000E-08  5.0000E-08   0.000       0.000    
   3    0.000      5.0000E-08  1.0000E-08  1.0000E-08  8.0000E-08  8.0000E-08  5.0000E-08  5.0000E-08   0.000       0.000    
   4   8.0000E-08  5.0000E-08  1.0000E-08  1.0000E-08  1.0000E-08  1.0000E-08  1.0000E-08  1.0000E-08  2.0000E-08   0.000    
   5   8.0000E-08  5.0000E-08  1.0000E-08  1.0000E-08  1.0000E-08  1.0000E-08  1.0000E-08  1.0000E-08  1.0000E-08  1.0000E-08
   6   8.0000E-08  5.0000E-08  5.0000E-08  2.0000E-08  2.0000E-08  1.0000E-08  1.0000E-08  1.0000E-08  1.0000E-08  5.0000E-08
   7   8.0000E-08  5.0000E-08  5.0000E-08  2.0000E-08  2.0000E-08  1.0000E-08  1.0000E-08  2.0000E-08  2.0000E-08   0.000    
   8    0.000      5.0000E-08  5.0000E-08  2.0000E-08  2.0000E-08  1.0000E-08  1.0000E-08  2.0000E-08  5.0000E-08   0.000    
   9    0.000      5.0000E-08  5.0000E-08  2.0000E-08  2.0000E-08  1.0000E-08  1.0000E-08  2.0000E-08  5.0000E-08   0.000    
  10    0.000      5.0000E-08  5.0000E-08  2.0000E-08  2.0000E-08  1.0000E-08  1.0000E-08  2.0000E-08  5.0000E-08  8.0000E-08
  11    0.000      1.0000E-08  1.0000E-08  1.0000E-08  1.0000E-08  1.0000E-08  1.0000E-08  2.0000E-08  5.0000E-08   0.000    
  12   1.0000E-08  1.0000E-08  1.0000E-08  1.0000E-08  1.0000E-08  1.0000E-08  1.0000E-08  1.0000E-08  2.0000E-08   0.000    
  13   1.0000E-08  1.0000E-08  2.0000E-08  2.0000E-08  2.0000E-08  2.0000E-08  2.0000E-08  1.0000E-08  1.0000E-08   0.000    
  14    0.000      2.0000E-08  5.0000E-08  5.0000E-08  5.0000E-08  5.0000E-08  5.0000E-08  2.0000E-08  1.0000E-08   0.000    
  15    0.000       0.000      8.0000E-08  8.0000E-08  8.0000E-08  8.0000E-08   0.000       0.000       0.000       0.000    

USING ET RATE FROM PREVIOUS STRESS PERIOD. CURRENT PERIOD IS:       3

 USING ET EXTINCTION DEPTH FROM PREVIOUS STRESS PERIOD. CURRENT PERIOD IS:       3

 USING EXTINCTION WATER CONTENT FROM PREVIOUS STRESS PERIOD. CURRENT PERIOD IS:       3




 If any subsequent steady-state stress periods, min. and max. stages for each lake will be read in Record 9a.




 REUSING LAKE CONFIGURATION DATA FROM LAST STRESS PERIOD


 LAKE       PRECIP     EVAP     RUNOFF   WITHDRAW   BOTTOM     AREA
----------------------------------------------------------------------
   1     0.000E+00 4.000E-08 0.000E+00  0.000E+00 1.074E+03 2.500E+07




         C               INTERFACE CONDUCTANCES BETWEEN LAKE AND AQUIFER CELLS
   L     O          (IF TYPE = 6, CONDUCTANCE (L^2/T) IS BETWEEN AQUIFER CELL AND OVERLYING LAKE CELL.)
   A     L  L  T    (IF TYPE = 1 TO 4, CONDUCTANCES ARE PER UNIT SATURATED THICKNESS (L/T).)
   Y  R  U  A  Y
   E  O  M  K  P                        LAKEBED      C O N D U C T A N C E S
   R  W  N  E  E     DELTA Y   DELTA X  LEAKANCE   LAKEBED   AQUIFER  COMBINED
 _______________________________________________________________________________
   1  4  4  1  2    5.00E+03  5.00E+03  5.00E-02  2.50E+02  6.00E-03  6.00E-03
   1  3  5  1  3    5.00E+03  5.00E+03  5.00E-02  2.50E+02  1.20E-03  1.20E-03
   2  4  5  1  6    5.00E+03  5.00E+03  5.00E-02  1.25E+06  9.42E+00  9.42E+00
   1  5  5  1  4    5.00E+03  5.00E+03  5.00E-02  2.50E+02  6.00E-03  6.00E-03
   1  4  6  1  1    5.00E+03  5.00E+03  5.00E-02  2.50E+02  6.00E-03  6.00E-03
      LAKE     INFLOWING STREAM SEGMENT
         1                  9

 MAXIMUM NUMBER OF STREAMS INFLOWING TO A LAKE IS    1

      LAKE     OUTFLOWING STREAM SEGMENT
         1                 10

 MAXIMUM NUMBER OF STREAMS OUTFLOWING FROM A LAKE IS    1

 
 SOLVING FOR HEAD 
                                                   Max.-Head-Change                         Max.-Flux-Residual
  Residual-Control   Outer-Iter.   Inner-Iter.     Column Row Layer    Maximum-Head-Change  Column Row Layer    Maximum-Flux-Residual          L2-NORM 
          0                 1           2            10   10     2       0.4717051913E-01       4   10    2         0.1192035003E+01      0.4881054464E+01
          0                 2           2             4   10     2      -0.1990194130E-02       4   10    2        -0.5654920237E-01      0.1771392636E+00
          0                 3           1             7   12     2       0.3609217301E-04       3   12    2         0.1059232862E-02      0.3332917382E-02

    ------------------------------------------------
       NWT REQUIRED            3 OUTER ITERATIONS 
       AND A TOTAL OF          5 INNER ITERATIONS.
    ------------------------------------------------

 OUTPUT CONTROL FOR STRESS PERIOD    3   TIME STEP    1
    PRINT BUDGET
    SAVE BUDGET

            WELLS   PERIOD    3   STEP   1
 WELL      1   LAYER   2   ROW     6   COL     4   RATE    -1.00000    
 WELL      2   LAYER   2   ROW     6   COL     5   RATE    -1.00000    
 WELL      3   LAYER   2   ROW     7   COL     4   RATE    -1.00000    
 WELL      4   LAYER   2   ROW     7   COL     5   RATE    -1.00000    
 WELL      5   LAYER   2   ROW     8   COL     4   RATE    -1.00000    
 WELL      6   LAYER   2   ROW     8   COL     5   RATE    -1.00000    
 WELL      7   LAYER   2   ROW     9   COL     4   RATE    -1.00000    
 WELL      8   LAYER   2   ROW     9   COL     5   RATE    -1.00000    
 WELL      9   LAYER   2   ROW    10   COL     4   RATE    -1.00000    
 WELL     10   LAYER   2   ROW    10   COL     5   RATE    -1.00000    

  HEAD DEP BOUNDS   PERIOD    3   STEP     1
 BOUNDARY      1   LAYER   2   ROW    13   COL     1   RATE   -0.289313    
 BOUNDARY      2   LAYER   2   ROW    14   COL     9   RATE    0.214090    



 STREAM LISTING     PERIOD      3   STEP        1

 LAYER ROW COL. STREAM  RCH.  FLOW INTO     FLOW TO   FLOW OUT OF   OVRLND.     DIRECT     STREAM       STREAM     STREAM     STREAM   STREAMBED  STREAMBED
                SEG.NO.  NO.  STRM. RCH.    AQUIFER    STRM. RCH.    RUNOFF     PRECIP       ET          HEAD       DEPTH      WIDTH   CONDCTNC.   GRADIENT

   2    1    1     1     1    2.5000E+01  1.9554E+00   2.3045E+01  0.000E+00  0.000E+00  0.000E+00  1.09421E+03  1.165E+00  1.287E+01  5.790E-01  1.126E+00
   2    2    2     1     2    2.3045E+01  3.5443E+00   1.9500E+01  0.000E+00  0.000E+00  0.000E+00  1.08918E+03  1.122E+00  1.228E+01  8.599E-01  1.374E+00
   2    3    3     1     3    1.9500E+01  2.7881E+00   1.6712E+01  0.000E+00  0.000E+00  0.000E+00  1.08349E+03  1.069E+00  1.142E+01  6.852E-01  1.356E+00
   2    3    4     1     4    1.6712E+01  2.3622E+00   1.4350E+01  0.000E+00  0.000E+00  0.000E+00  1.07843E+03  1.022E+00  1.058E+01  5.873E-01  1.341E+00
   2    4    5     2     1    4.3500E+00  2.6064E+00   1.7436E+00  0.000E+00  0.000E+00  0.000E+00  1.07228E+03  3.415E-01  1.200E+01  7.800E-01  1.114E+00
   2    5    6     2     2    1.7436E+00  1.7436E+00   0.0000E+00  0.000E+00  0.000E+00  0.000E+00  1.06656E+03  5.498E-02  1.200E+01  6.000E-01  1.018E+00
   2    6    6     2     3    0.0000E+00  0.0000E+00   0.0000E+00  0.000E+00  0.000E+00  0.000E+00  1.06179E+03  0.000E+00  1.200E+01  6.000E-01  1.000E+00
   2    7    6     2     4    0.0000E+00  0.0000E+00   0.0000E+00  0.000E+00  0.000E+00  0.000E+00  1.05708E+03  0.000E+00  1.200E+01  6.000E-01  1.000E+00
   2    8    6     2     5    0.0000E+00  0.0000E+00   0.0000E+00  0.000E+00  0.000E+00  0.000E+00  1.05236E+03  0.000E+00  1.200E+01  6.000E-01  1.000E+00
   2    3    5     3     1    1.0000E+01  2.8252E+00   7.1748E+00  0.000E+00  0.000E+00  0.000E+00  1.07555E+03  1.909E+00  9.636E+00  7.227E-01  1.955E+00
   2    3    6     3     2    7.1748E+00  2.4905E+00   4.6843E+00  0.000E+00  0.000E+00  0.000E+00  1.07264E+03  1.727E+00  8.909E+00  6.682E-01  1.864E+00
   2    3    7     3     3    4.6843E+00  1.9718E+00   2.7125E+00  0.000E+00  0.000E+00  0.000E+00  1.06987E+03  1.555E+00  8.218E+00  5.547E-01  1.777E+00
   2    4    8     3     4    2.7125E+00  2.2567E+00   4.5579E-01  0.000E+00  0.000E+00  0.000E+00  1.06682E+03  1.364E+00  7.455E+00  6.709E-01  1.682E+00
   2    5    8     3     5    4.5579E-01  4.5579E-01   0.0000E+00  0.000E+00  0.000E+00  0.000E+00  1.06362E+03  0.000E+00  6.655E+00  4.991E-01  1.582E+00
   2    6    8     3     6    0.0000E+00  0.0000E+00   0.0000E+00  0.000E+00  0.000E+00  0.000E+00  1.06055E+03  0.000E+00  6.145E+00  1.844E-01  1.000E+00
   2    5   10     4     1    1.0000E+01  9.0525E-01   9.0947E+00  0.000E+00  0.000E+00  0.000E+00  1.07835E+03  6.210E-01  1.000E+01  2.500E-01  1.207E+00
   2    5    9     4     2    9.0947E+00  1.7835E+00   7.3113E+00  0.000E+00  0.000E+00  0.000E+00  1.07148E+03  5.670E-01  1.000E+01  5.000E-01  1.189E+00
   2    6    8     4     3    7.3113E+00  1.2257E+00   6.0855E+00  0.000E+00  0.000E+00  0.000E+00  1.06368E+03  5.021E-01  1.000E+01  3.500E-01  1.167E+00
   2    6    8     5     1    6.0855E+00  1.4716E+00   4.6139E+00  0.000E+00  0.000E+00  0.000E+00  1.05854E+03  5.396E-01  1.039E+01  4.158E-01  1.180E+00
   2    7    7     5     2    4.6139E+00  1.4897E+00   3.1242E+00  0.000E+00  0.000E+00  0.000E+00  1.05398E+03  4.817E-01  8.557E+00  4.279E-01  1.161E+00
   2    8    7     5     3    3.1242E+00  8.2855E-01   2.2957E+00  0.000E+00  0.000E+00  0.000E+00  1.04968E+03  4.253E-01  6.911E+00  2.419E-01  1.142E+00
   2    8    6     5     4    2.2957E+00  4.9455E-01   1.8011E+00  0.000E+00  0.000E+00  0.000E+00  1.04664E+03  3.856E-01  5.843E+00  1.461E-01  1.129E+00
   2    9    6     6     1    1.8011E+00  1.8011E+00   0.0000E+00  0.000E+00  0.000E+00  0.000E+00  1.04278E+03  5.669E-02  1.200E+01  6.000E-01  1.019E+00
   2   10    7     6     2    0.0000E+00  0.0000E+00   0.0000E+00  0.000E+00  0.000E+00  0.000E+00  1.03818E+03  0.000E+00  1.200E+01  6.000E-01  1.000E+00
   2   11    7     6     3    0.0000E+00  0.0000E+00   0.0000E+00  0.000E+00  0.000E+00  0.000E+00  1.03364E+03  0.000E+00  1.200E+01  6.000E-01  1.000E+00
   2   12    7     6     4    0.0000E+00  0.0000E+00   0.0000E+00  0.000E+00  0.000E+00  0.000E+00  1.02909E+03  0.000E+00  1.200E+01  6.000E-01  5.512E-01
   2   13    7     6     5    0.0000E+00 -7.3801E-01   7.3801E-01  0.000E+00  0.000E+00  0.000E+00  1.02601E+03  9.732E-02  1.200E+01  2.400E-01 -1.025E+00
   2   14    9     7     1    1.5000E+02  2.7872E+00   1.4721E+02  0.000E+00  0.000E+00  0.000E+00  1.03986E+03  2.284E+00  5.528E+01  5.591E+00  1.662E-01
   2   13    8     7     2    1.4721E+02  3.8963E+00   1.4332E+02  0.000E+00  0.000E+00  0.000E+00  1.03477E+03  2.266E+00  5.520E+01  6.141E+00  2.115E-01
   2   13    7     7     3    1.4332E+02  3.2580E+00   1.4006E+02  0.000E+00  0.000E+00  0.000E+00  1.02967E+03  2.247E+00  5.511E+01  5.573E+00  1.949E-01
   2   13    6     8     1    1.4080E+02  1.3706E+00   1.3943E+02  0.000E+00  0.000E+00  0.000E+00  1.02462E+03  2.746E+00  3.981E+01  4.057E+00  1.126E-01
   2   13    5     8     2    1.3943E+02 -1.8499E+00   1.4128E+02  0.000E+00  0.000E+00  0.000E+00  1.01837E+03  2.747E+00  3.984E+01  4.060E+00 -1.519E-01
   2   13    4     8     3    1.4128E+02 -4.8926E+00   1.4617E+02  0.000E+00  0.000E+00  0.000E+00  1.01215E+03  2.772E+00  4.019E+01  4.096E+00 -3.982E-01
   2   13    3     8     4    1.4617E+02 -5.6542E+00   1.5182E+02  0.000E+00  0.000E+00  0.000E+00  1.00593E+03  2.810E+00  4.074E+01  4.152E+00 -4.540E-01
   2   13    2     8     5    1.5182E+02 -3.4654E+00   1.5529E+02  0.000E+00  0.000E+00  0.000E+00  9.99717E+02  2.842E+00  4.120E+01  4.199E+00 -2.751E-01
   2   13    1     8     6    1.5529E+02 -2.2252E+00   1.5751E+02  0.000E+00  0.000E+00  0.000E+00  9.94736E+02  2.861E+00  4.149E+01  2.537E+00 -2.924E-01
   2    4    5     9     1    0.0000E+00  0.0000E+00   0.0000E+00  0.000E+00  0.000E+00  0.000E+00  1.06000E+03  0.000E+00  2.000E+01  2.000E-03  1.000E+00
   2    4    5    10     1    0.0000E+00  0.0000E+00   0.0000E+00  0.000E+00  0.000E+00  0.000E+00  1.08000E+03  0.000E+00  2.000E+01  2.000E-03  1.000E+00



 ..........LAKE  1 IS DRY..........

     SECTIONS OF THE LAKE BOTTOM HAVE BECOME DRY.  THE DRYSECTIONS
     LIE ABOVE THE FOLLOWING  1 AQUIFER CELLS (LAYER,ROW,COLUMN):
     (  2,  4,  5)  (

 PERIOD     3     TIME STEP     1     TIME STEP LENGTH  1.7520E+05
 PERIOD TIME  1.7520E+05     TOTAL SIMULATION TIME  5.4312E+06


                 HYDROLOGIC BUDGET SUMMARIES FOR SIMULATED LAKES
     (ALL FLUID FLUXES ARE VOLUMES ADDED TO THE LAKE DURING PRESENT TIME STEP)
     ----------------------------------------------------------------------------------------
 LAKE    STAGE         VOLUME     VOL. CHANGE      PRECIP     EVAPORATION    SPECIFIED RUNOFF     COMPUTED RUNOFF    TOTAL RUNOFF
   1  1.074500E+03  0.000000E+00  0.000000E+00  0.000000E+00  0.000000E+00   0.000000E+00          0.000000E+00      0.000000E+00

            GROUND WATER            SURFACE WATER        WATER          UZF INFIL.
 LAKE    INFLOW     OUTFLOW      INFLOW     OUTFLOW       USE        FROM LAKE
   1  0.0000E+00  0.0000E+00  0.0000E+00  0.0000E+00  0.0000E+00       0.0000E+00

      CONNECTED LAKE   TIME-STEP         STAGE-CHANGE          PERCENT
 LAKE    INFLUX      SURFACE AREA   TIME STEP  CUMULATIVE    DISCREPANCY
   1   0.0000E+00     0.0000E+00   0.0000E+00  0.0000E+00       0.000
 --------------------------------------------------------------------------------



            CUMULATIVE HYDROLOGIC BUDGET SUMMARIES FOR SIMULATED LAKES
     (ALL FLUID FLUXES ARE SUMS OF VOLUMES ADDED TO THE LAKE SINCE INITIAL TIME)
     ---------------------------------------------------------------------------
 LAKE       PRECIP       EVAP     SPECIFIED RUNOFF   COMPUTED RUNOFF   TOTAL RUNOFF
   1     0.0000E+00  0.0000E+00       0.0000E+00       0.0000E+00       0.0000E+00

            GROUND WATER            SURFACE WATER       UZF INFIL.
 LAKE    INFLOW     OUTFLOW      INFLOW     OUTFLOW     FROM LAKE
   1  0.0000E+00  0.0000E+00  0.0000E+00  0.0000E+00    0.0000E+00

         WATER    CONNECTED LAKE   CHANGE       PERCENT
 LAKE     USE         INFLUX       IN VOL.    DISCREPANCY
   1   0.0000E+00   0.0000E+00   0.0000E+00      0.000
 --------------------------------------------------------------------------------

 UBDSV3 SAVING "           GW ET" ON UNIT  61 AT TIME STEP     1, STRESS PERIOD   3
 UBDSV3 SAVING "    UZF RECHARGE" ON UNIT  61 AT TIME STEP     1, STRESS PERIOD   3
 UBDSV3 SAVING " SURFACE LEAKAGE" ON UNIT  61 AT TIME STEP     1, STRESS PERIOD   3
 UBDSV3 SAVING "       HORT+DUNN" ON UNIT  61 AT TIME STEP     1, STRESS PERIOD   3
 UBDSV3 SAVING "  STORAGE CHANGE" ON UNIT  61 AT TIME STEP     1, STRESS PERIOD   3


UNSATURATED ZONE PACKAGE VOLUMETRIC BUDGET FOR  TIME STEP     1 STRESS PERIOD    3
  ------------------------------------------------------------------------------



     CUMULATIVE VOLUMES      L**3       RATES FOR THIS TIME STEP      L**3/T
     ------------------                 ------------------------

           IN:                                      IN:
           ---                                      ---
        INFILTRATION =   194677860.0000          INFILTRATION =          84.5000

          OUT:                                     OUT:
          ----                                     ----
              UZF ET =   364613473.9060                UZF ET =         126.8465
        UZF RECHARGE =   111020712.5873          UZF RECHARGE =          33.5513

            IN - OUT =  -280956326.4933              IN - OUT =         -75.8978

          STORAGE:                                 STORAGE:
          --------                                 --------
      STORAGE CHANGE =  -280899257.3907        STORAGE CHANGE =         -75.8779

 PERCENT DISCREPANCY IS DIFFERENCE BETWEEN IN-OUT MINUS CHANGE IN STORAGE
 DIVIDED BY THE AVERAGE OF IN AND OUT TIMES 100

 PERCENT DISCREPANCY =          -0.00     PERCENT DISCREPANCY =          -0.01






1
  VOLUMETRIC BUDGET FOR ENTIRE MODEL AT END OF TIME STEP    1, STRESS PERIOD   3
  ------------------------------------------------------------------------------

     CUMULATIVE VOLUMES      L**3       RATES FOR THIS TIME STEP      L**3/T
     ------------------                 ------------------------

           IN:                                      IN:
           ---                                      ---
             STORAGE =     7987996.0000               STORAGE =           0.4635
       CONSTANT HEAD =           0.0000         CONSTANT HEAD =           0.0000
               WELLS =           0.0000                 WELLS =           0.0000
     HEAD DEP BOUNDS =     1169129.6250       HEAD DEP BOUNDS =           0.2141
      STREAM LEAKAGE =   261110560.0000        STREAM LEAKAGE =          46.3120
       LAKE  SEEPAGE =           0.0000         LAKE  SEEPAGE =           0.0000
        UZF RECHARGE =   111020712.0000          UZF RECHARGE =          33.5513
               GW ET =           0.0000                 GW ET =           0.0000
     SURFACE LEAKAGE =           0.0000       SURFACE LEAKAGE =           0.0000

            TOTAL IN =   381288384.0000              TOTAL IN =          80.5409

          OUT:                                     OUT:
          ----                                     ----
             STORAGE =   109532320.0000               STORAGE =          40.7304
       CONSTANT HEAD =           0.0000         CONSTANT HEAD =           0.0000
               WELLS =   106872000.0000                 WELLS =          10.0000
     HEAD DEP BOUNDS =     1560635.6250       HEAD DEP BOUNDS =           0.2893
      STREAM LEAKAGE =    96392760.0000        STREAM LEAKAGE =          18.8252
       LAKE  SEEPAGE =           0.0000         LAKE  SEEPAGE =           0.0000
        UZF RECHARGE =           0.0000          UZF RECHARGE =           0.0000
               GW ET =    66924288.0000                 GW ET =          10.6960
     SURFACE LEAKAGE =           0.0000       SURFACE LEAKAGE =           0.0000

           TOTAL OUT =   381282016.0000             TOTAL OUT =          80.5409

            IN - OUT =        6368.0000              IN - OUT =      -2.2888E-05

 PERCENT DISCREPANCY =           0.00     PERCENT DISCREPANCY =          -0.00






         TIME SUMMARY AT END OF TIME STEP    1 IN STRESS PERIOD    3
                    SECONDS     MINUTES      HOURS       DAYS        YEARS
                    -----------------------------------------------------------
   TIME STEP LENGTH 1.75200E+05  2920.0      48.667      2.0278     5.55175E-03
 STRESS PERIOD TIME 1.75200E+05  2920.0      48.667      2.0278     5.55175E-03
         TOTAL TIME 5.43120E+06  90520.      1508.7      62.861     0.17210    
1
 
 SOLVING FOR HEAD 
                                                   Max.-Head-Change                         Max.-Flux-Residual
  Residual-Control   Outer-Iter.   Inner-Iter.     Column Row Layer    Maximum-Head-Change  Column Row Layer    Maximum-Flux-Residual          L2-NORM 
          0                 1           2            10   10     2       0.4716614739E-01       4    9    2         0.1163240259E+01      0.4730208297E+01
          0                 2           2             4    9     2      -0.1943156536E-02       4   10    2        -0.5398798204E-01      0.1707400603E+00
          0                 3           1             7   11     2       0.3871174503E-04       3   12    2         0.1137834205E-02      0.3469087170E-02

    ------------------------------------------------
       NWT REQUIRED            3 OUTER ITERATIONS 
       AND A TOTAL OF          5 INNER ITERATIONS.
    ------------------------------------------------

 NO OUTPUT CONTROL FOR STRESS PERIOD    3   TIME STEP    2
 ..........LAKE  1 IS DRY..........
 
 SOLVING FOR HEAD 
                                                   Max.-Head-Change                         Max.-Flux-Residual
  Residual-Control   Outer-Iter.   Inner-Iter.     Column Row Layer    Maximum-Head-Change  Column Row Layer    Maximum-Flux-Residual          L2-NORM 
          0                 1           2            10   10     2       0.4716078576E-01       4    9    2         0.1146545542E+01      0.4568627818E+01
          0                 2           2             4    9     2      -0.1916463322E-02       4    9    2        -0.5271710528E-01      0.1585058898E+00
          0                 3           1             3   12     2       0.2811672403E-04       3   12    2         0.8443206520E-03      0.2224726001E-02

    ------------------------------------------------
       NWT REQUIRED            3 OUTER ITERATIONS 
       AND A TOTAL OF          5 INNER ITERATIONS.
    ------------------------------------------------

 NO OUTPUT CONTROL FOR STRESS PERIOD    3   TIME STEP    3
 ..........LAKE  1 IS DRY..........
 
 SOLVING FOR HEAD 
                                                   Max.-Head-Change                         Max.-Flux-Residual
  Residual-Control   Outer-Iter.   Inner-Iter.     Column Row Layer    Maximum-Head-Change  Column Row Layer    Maximum-Flux-Residual          L2-NORM 
          0                 1           2            10   10     2       0.4715443488E-01       4    9    2         0.1127577643E+01      0.4548748028E+01
          0                 2           2             4    9     2      -0.1884911018E-02       4    9    2        -0.5194292767E-01      0.1614087621E+00
          0                 3           1             2    2     2       0.2737931482E-04       3   12    2         0.7983382434E-03      0.2318230524E-02

    ------------------------------------------------
       NWT REQUIRED            3 OUTER ITERATIONS 
       AND A TOTAL OF          5 INNER ITERATIONS.
    ------------------------------------------------

 NO OUTPUT CONTROL FOR STRESS PERIOD    3   TIME STEP    4
 ..........LAKE  1 IS DRY..........
 
 SOLVING FOR HEAD 
                                                   Max.-Head-Change                         Max.-Flux-Residual
  Residual-Control   Outer-Iter.   Inner-Iter.     Column Row Layer    Maximum-Head-Change  Column Row Layer    Maximum-Flux-Residual          L2-NORM 
          0                 1           2            10   10     2       0.4714701450E-01       4    9    2         0.1107062374E+01      0.4441266405E+01
          0                 2           2             4    9     2      -0.1851960235E-02       4    9    2        -0.5109516921E-01      0.1581105335E+00
          0                 3           1             2    2     2       0.2960511811E-04       2    2    2         0.8618839706E-03      0.2280725955E-02

    ------------------------------------------------
       NWT REQUIRED            3 OUTER ITERATIONS 
       AND A TOTAL OF          5 INNER ITERATIONS.
    ------------------------------------------------

 OUTPUT CONTROL FOR STRESS PERIOD    3   TIME STEP    5
    PRINT BUDGET
    SAVE BUDGET

            WELLS   PERIOD    3   STEP   5
 WELL      1   LAYER   2   ROW     6   COL     4   RATE    -1.00000    
 WELL      2   LAYER   2   ROW     6   COL     5   RATE    -1.00000    
 WELL      3   LAYER   2   ROW     7   COL     4   RATE    -1.00000    
 WELL      4   LAYER   2   ROW     7   COL     5   RATE    -1.00000    
 WELL      5   LAYER   2   ROW     8   COL     4   RATE    -1.00000    
 WELL      6   LAYER   2   ROW     8   COL     5   RATE    -1.00000    
 WELL      7   LAYER   2   ROW     9   COL     4   RATE    -1.00000    
 WELL      8   LAYER   2   ROW     9   COL     5   RATE    -1.00000    
 WELL      9   LAYER   2   ROW    10   COL     4   RATE    -1.00000    
 WELL     10   LAYER   2   ROW    10   COL     5   RATE    -1.00000    

  HEAD DEP BOUNDS   PERIOD    3   STEP     5
 BOUNDARY      1   LAYER   2   ROW    13   COL     1   RATE   -0.289850    
 BOUNDARY      2   LAYER   2   ROW    14   COL     9   RATE    0.214364    



 STREAM LISTING     PERIOD      3   STEP        5

 LAYER ROW COL. STREAM  RCH.  FLOW INTO     FLOW TO   FLOW OUT OF   OVRLND.     DIRECT     STREAM       STREAM     STREAM     STREAM   STREAMBED  STREAMBED
                SEG.NO.  NO.  STRM. RCH.    AQUIFER    STRM. RCH.    RUNOFF     PRECIP       ET          HEAD       DEPTH      WIDTH   CONDCTNC.   GRADIENT

   2    1    1     1     1    2.7000E+01  2.0322E+00   2.4968E+01  0.000E+00  0.000E+00  0.000E+00  1.09424E+03  1.195E+00  1.326E+01  5.965E-01  1.136E+00
   2    2    2     1     2    2.4968E+01  3.6852E+00   2.1283E+01  0.000E+00  0.000E+00  0.000E+00  1.08921E+03  1.152E+00  1.268E+01  8.877E-01  1.384E+00
   2    3    3     1     3    2.1283E+01  2.9362E+00   1.8346E+01  0.000E+00  0.000E+00  0.000E+00  1.08352E+03  1.097E+00  1.194E+01  7.167E-01  1.366E+00
   2    3    4     1     4    1.8346E+01  2.4957E+00   1.5851E+01  0.000E+00  0.000E+00  0.000E+00  1.07846E+03  1.051E+00  1.110E+01  6.160E-01  1.350E+00
   2    4    5     2     1    5.8507E+00  2.6772E+00   3.1735E+00  0.000E+00  0.000E+00  0.000E+00  1.07237E+03  4.323E-01  1.200E+01  7.800E-01  1.144E+00
   2    5    6     2     2    3.1735E+00  1.9681E+00   1.2055E+00  0.000E+00  0.000E+00  0.000E+00  1.06679E+03  2.801E-01  1.200E+01  6.000E-01  1.093E+00
   2    6    6     2     3    1.2055E+00  1.2055E+00   0.0000E+00  0.000E+00  0.000E+00  0.000E+00  1.06184E+03  4.406E-02  1.200E+01  6.000E-01  1.015E+00
   2    7    6     2     4    0.0000E+00  0.0000E+00   0.0000E+00  0.000E+00  0.000E+00  0.000E+00  1.05708E+03  0.000E+00  1.200E+01  6.000E-01  1.000E+00
   2    8    6     2     5    0.0000E+00  0.0000E+00   0.0000E+00  0.000E+00  0.000E+00  0.000E+00  1.05236E+03  0.000E+00  1.200E+01  6.000E-01  1.000E+00
   2    3    5     3     1    1.0000E+01  2.8252E+00   7.1748E+00  0.000E+00  0.000E+00  0.000E+00  1.07555E+03  1.909E+00  9.636E+00  7.227E-01  1.955E+00
   2    3    6     3     2    7.1748E+00  2.4905E+00   4.6843E+00  0.000E+00  0.000E+00  0.000E+00  1.07264E+03  1.727E+00  8.909E+00  6.682E-01  1.864E+00
   2    3    7     3     3    4.6843E+00  1.9718E+00   2.7125E+00  0.000E+00  0.000E+00  0.000E+00  1.06987E+03  1.555E+00  8.218E+00  5.547E-01  1.777E+00
   2    4    8     3     4    2.7125E+00  2.2567E+00   4.5579E-01  0.000E+00  0.000E+00  0.000E+00  1.06682E+03  1.364E+00  7.455E+00  6.709E-01  1.682E+00
   2    5    8     3     5    4.5579E-01  4.5579E-01   0.0000E+00  0.000E+00  0.000E+00  0.000E+00  1.06362E+03  0.000E+00  6.655E+00  4.991E-01  1.582E+00
   2    6    8     3     6    0.0000E+00  0.0000E+00   0.0000E+00  0.000E+00  0.000E+00  0.000E+00  1.06055E+03  0.000E+00  6.145E+00  1.844E-01  1.000E+00
   2    5   10     4     1    1.0000E+01  9.0525E-01   9.0947E+00  0.000E+00  0.000E+00  0.000E+00  1.07835E+03  6.210E-01  1.000E+01  2.500E-01  1.207E+00
   2    5    9     4     2    9.0947E+00  1.7835E+00   7.3113E+00  0.000E+00  0.000E+00  0.000E+00  1.07148E+03  5.670E-01  1.000E+01  5.000E-01  1.189E+00
   2    6    8     4     3    7.3113E+00  1.2257E+00   6.0855E+00  0.000E+00  0.000E+00  0.000E+00  1.06368E+03  5.021E-01  1.000E+01  3.500E-01  1.167E+00
   2    6    8     5     1    6.0855E+00  1.4716E+00   4.6139E+00  0.000E+00  0.000E+00  0.000E+00  1.05854E+03  5.396E-01  1.039E+01  4.158E-01  1.180E+00
   2    7    7     5     2    4.6139E+00  1.4897E+00   3.1242E+00  0.000E+00  0.000E+00  0.000E+00  1.05398E+03  4.817E-01  8.557E+00  4.279E-01  1.161E+00
   2    8    7     5     3    3.1242E+00  8.2855E-01   2.2957E+00  0.000E+00  0.000E+00  0.000E+00  1.04968E+03  4.253E-01  6.911E+00  2.419E-01  1.142E+00
   2    8    6     5     4    2.2957E+00  4.9455E-01   1.8011E+00  0.000E+00  0.000E+00  0.000E+00  1.04664E+03  3.856E-01  5.843E+00  1.461E-01  1.129E+00
   2    9    6     6     1    1.8011E+00  1.8011E+00   0.0000E+00  0.000E+00  0.000E+00  0.000E+00  1.04278E+03  5.669E-02  1.200E+01  6.000E-01  1.019E+00
   2   10    7     6     2    0.0000E+00  0.0000E+00   0.0000E+00  0.000E+00  0.000E+00  0.000E+00  1.03818E+03  0.000E+00  1.200E+01  6.000E-01  1.000E+00
   2   11    7     6     3    0.0000E+00  0.0000E+00   0.0000E+00  0.000E+00  0.000E+00  0.000E+00  1.03364E+03  0.000E+00  1.200E+01  6.000E-01  1.000E+00
   2   12    7     6     4    0.0000E+00  0.0000E+00   0.0000E+00  0.000E+00  0.000E+00  0.000E+00  1.02909E+03  0.000E+00  1.200E+01  6.000E-01  5.468E-01
   2   13    7     6     5    0.0000E+00 -7.4050E-01   7.4050E-01  0.000E+00  0.000E+00  0.000E+00  1.02601E+03  9.751E-02  1.200E+01  2.400E-01 -1.028E+00
   2   14    9     7     1    1.5000E+02  2.8268E+00   1.4717E+02  0.000E+00  0.000E+00  0.000E+00  1.03986E+03  2.284E+00  5.528E+01  5.591E+00  1.685E-01
   2   13    8     7     2    1.4717E+02  3.9139E+00   1.4326E+02  0.000E+00  0.000E+00  0.000E+00  1.03477E+03  2.266E+00  5.520E+01  6.140E+00  2.125E-01
   2   13    7     7     3    1.4326E+02  3.1982E+00   1.4006E+02  0.000E+00  0.000E+00  0.000E+00  1.02967E+03  2.247E+00  5.511E+01  5.573E+00  1.913E-01
   2   13    6     8     1    1.4080E+02  1.3054E+00   1.3950E+02  0.000E+00  0.000E+00  0.000E+00  1.02462E+03  2.746E+00  3.982E+01  4.057E+00  1.072E-01
   2   13    5     8     2    1.3950E+02 -1.9299E+00   1.4143E+02  0.000E+00  0.000E+00  0.000E+00  1.01837E+03  2.748E+00  3.985E+01  4.061E+00 -1.584E-01
   2   13    4     8     3    1.4143E+02 -4.9687E+00   1.4639E+02  0.000E+00  0.000E+00  0.000E+00  1.01215E+03  2.773E+00  4.021E+01  4.098E+00 -4.042E-01
   2   13    3     8     4    1.4639E+02 -5.7282E+00   1.5212E+02  0.000E+00  0.000E+00  0.000E+00  1.00594E+03  2.812E+00  4.077E+01  4.154E+00 -4.596E-01
   2   13    2     8     5    1.5212E+02 -3.4701E+00   1.5559E+02  0.000E+00  0.000E+00  0.000E+00  9.99719E+02  2.844E+00  4.123E+01  4.202E+00 -2.753E-01
   2   13    1     8     6    1.5559E+02 -2.2572E+00   1.5785E+02  0.000E+00  0.000E+00  0.000E+00  9.94739E+02  2.864E+00  4.152E+01  2.539E+00 -2.964E-01
   2    4    5     9     1    0.0000E+00  0.0000E+00   0.0000E+00  0.000E+00  0.000E+00  0.000E+00  1.06000E+03  0.000E+00  2.000E+01  2.000E-03  1.000E+00
   2    4    5    10     1    0.0000E+00  0.0000E+00   0.0000E+00  0.000E+00  0.000E+00  0.000E+00  1.08000E+03  0.000E+00  2.000E+01  2.000E-03  1.000E+00



 ..........LAKE  1 IS DRY..........

     SECTIONS OF THE LAKE BOTTOM HAVE BECOME DRY.  THE DRYSECTIONS
     LIE ABOVE THE FOLLOWING  1 AQUIFER CELLS (LAYER,ROW,COLUMN):
     (  2,  4,  5)  (

 PERIOD     3     TIME STEP     5     TIME STEP LENGTH  1.7520E+05
 PERIOD TIME  8.7600E+05     TOTAL SIMULATION TIME  6.1320E+06


                 HYDROLOGIC BUDGET SUMMARIES FOR SIMULATED LAKES
     (ALL FLUID FLUXES ARE VOLUMES ADDED TO THE LAKE DURING PRESENT TIME STEP)
     ----------------------------------------------------------------------------------------
 LAKE    STAGE         VOLUME     VOL. CHANGE      PRECIP     EVAPORATION    SPECIFIED RUNOFF     COMPUTED RUNOFF    TOTAL RUNOFF
   1  1.074500E+03  0.000000E+00  0.000000E+00  0.000000E+00  0.000000E+00   0.000000E+00          0.000000E+00      0.000000E+00

            GROUND WATER            SURFACE WATER        WATER          UZF INFIL.
 LAKE    INFLOW     OUTFLOW      INFLOW     OUTFLOW       USE        FROM LAKE
   1  0.0000E+00  0.0000E+00  0.0000E+00  0.0000E+00  0.0000E+00       0.0000E+00

      CONNECTED LAKE   TIME-STEP         STAGE-CHANGE          PERCENT
 LAKE    INFLUX      SURFACE AREA   TIME STEP  CUMULATIVE    DISCREPANCY
   1   0.0000E+00     0.0000E+00   0.0000E+00  0.0000E+00       0.000
 --------------------------------------------------------------------------------



            CUMULATIVE HYDROLOGIC BUDGET SUMMARIES FOR SIMULATED LAKES
     (ALL FLUID FLUXES ARE SUMS OF VOLUMES ADDED TO THE LAKE SINCE INITIAL TIME)
     ---------------------------------------------------------------------------
 LAKE       PRECIP       EVAP     SPECIFIED RUNOFF   COMPUTED RUNOFF   TOTAL RUNOFF
   1     0.0000E+00  0.0000E+00       0.0000E+00       0.0000E+00       0.0000E+00

            GROUND WATER            SURFACE WATER       UZF INFIL.
 LAKE    INFLOW     OUTFLOW      INFLOW     OUTFLOW     FROM LAKE
   1  0.0000E+00  0.0000E+00  0.0000E+00  0.0000E+00    0.0000E+00

         WATER    CONNECTED LAKE   CHANGE       PERCENT
 LAKE     USE         INFLUX       IN VOL.    DISCREPANCY
   1   0.0000E+00   0.0000E+00   0.0000E+00      0.000
 --------------------------------------------------------------------------------

 UBDSV3 SAVING "           GW ET" ON UNIT  61 AT TIME STEP     5, STRESS PERIOD   3
 UBDSV3 SAVING "    UZF RECHARGE" ON UNIT  61 AT TIME STEP     5, STRESS PERIOD   3
 UBDSV3 SAVING " SURFACE LEAKAGE" ON UNIT  61 AT TIME STEP     5, STRESS PERIOD   3
 UBDSV3 SAVING "       HORT+DUNN" ON UNIT  61 AT TIME STEP     5, STRESS PERIOD   3
 UBDSV3 SAVING "  STORAGE CHANGE" ON UNIT  61 AT TIME STEP     5, STRESS PERIOD   3


UNSATURATED ZONE PACKAGE VOLUMETRIC BUDGET FOR  TIME STEP     5 STRESS PERIOD    3
  ------------------------------------------------------------------------------



     CUMULATIVE VOLUMES      L**3       RATES FOR THIS TIME STEP      L**3/T
     ------------------                 ------------------------

           IN:                                      IN:
           ---                                      ---
        INFILTRATION =   253895460.0000          INFILTRATION =          84.5000

          OUT:                                     OUT:
          ----                                     ----
              UZF ET =   417364880.1013                UZF ET =          56.7872
        UZF RECHARGE =   133088497.2590          UZF RECHARGE =          30.2159

            IN - OUT =  -296557917.3604              IN - OUT =          -2.5031

          STORAGE:                                 STORAGE:
          --------                                 --------
      STORAGE CHANGE =  -296492048.7348        STORAGE CHANGE =          -2.4928

 PERCENT DISCREPANCY IS DIFFERENCE BETWEEN IN-OUT MINUS CHANGE IN STORAGE
 DIVIDED BY THE AVERAGE OF IN AND OUT TIMES 100

 PERCENT DISCREPANCY =          -0.00     PERCENT DISCREPANCY =          -0.01






1
  VOLUMETRIC BUDGET FOR ENTIRE MODEL AT END OF TIME STEP    5, STRESS PERIOD   3
  ------------------------------------------------------------------------------

     CUMULATIVE VOLUMES      L**3       RATES FOR THIS TIME STEP      L**3/T
     ------------------                 ------------------------

           IN:                                      IN:
           ---                                      ---
             STORAGE =     8227684.0000               STORAGE =           0.2189
       CONSTANT HEAD =           0.0000         CONSTANT HEAD =           0.0000
               WELLS =           0.0000                 WELLS =           0.0000
     HEAD DEP BOUNDS =     1319255.3750       HEAD DEP BOUNDS =           0.2144
      STREAM LEAKAGE =   294191424.0000        STREAM LEAKAGE =          48.2444
       LAKE  SEEPAGE =           0.0000         LAKE  SEEPAGE =           0.0000
        UZF RECHARGE =   133088496.0000          UZF RECHARGE =          30.2159
               GW ET =           0.0000                 GW ET =           0.0000
     SURFACE LEAKAGE =           0.0000       SURFACE LEAKAGE =           0.0000

            TOTAL IN =   436826880.0000              TOTAL IN =          78.8935

          OUT:                                     OUT:
          ----                                     ----
             STORAGE =   135934000.0000               STORAGE =          36.6653
       CONSTANT HEAD =           0.0000         CONSTANT HEAD =           0.0000
               WELLS =   113880000.0000                 WELLS =          10.0000
     HEAD DEP BOUNDS =     1763611.1250       HEAD DEP BOUNDS =           0.2899
      STREAM LEAKAGE =   109711032.0000        STREAM LEAKAGE =          19.0945
       LAKE  SEEPAGE =           0.0000         LAKE  SEEPAGE =           0.0000
        UZF RECHARGE =           0.0000          UZF RECHARGE =           0.0000
               GW ET =    75531784.0000                 GW ET =          12.8438
     SURFACE LEAKAGE =           0.0000       SURFACE LEAKAGE =           0.0000

           TOTAL OUT =   436820416.0000             TOTAL OUT =          78.8934

            IN - OUT =        6464.0000              IN - OUT =       9.9182E-05

 PERCENT DISCREPANCY =           0.00     PERCENT DISCREPANCY =           0.00






         TIME SUMMARY AT END OF TIME STEP    5 IN STRESS PERIOD    3
                    SECONDS     MINUTES      HOURS       DAYS        YEARS
                    -----------------------------------------------------------
   TIME STEP LENGTH 1.75200E+05  2920.0      48.667      2.0278     5.55175E-03
 STRESS PERIOD TIME 8.76000E+05  14600.      243.33      10.139     2.77588E-02
         TOTAL TIME 6.13200E+06 1.02200E+05  1703.3      70.972     0.19431    
1
 
 SOLVING FOR HEAD 
                                                   Max.-Head-Change                         Max.-Flux-Residual
  Residual-Control   Outer-Iter.   Inner-Iter.     Column Row Layer    Maximum-Head-Change  Column Row Layer    Maximum-Flux-Residual          L2-NORM 
          0                 1           2            10   10     2       0.4713845763E-01       4    9    2         0.1085032953E+01      0.4345180560E+01
          0                 2           2             4    9     2      -0.1814948740E-02       4    9    2        -0.5012887010E-01      0.1537357796E+00
          0                 3           1             2    2     2       0.2881823128E-04       2    2    2         0.8388601113E-03      0.2239968579E-02

    ------------------------------------------------
       NWT REQUIRED            3 OUTER ITERATIONS 
       AND A TOTAL OF          5 INNER ITERATIONS.
    ------------------------------------------------

 NO OUTPUT CONTROL FOR STRESS PERIOD    3   TIME STEP    6
 ..........LAKE  1 IS DRY..........
 
 SOLVING FOR HEAD 
                                                   Max.-Head-Change                         Max.-Flux-Residual
  Residual-Control   Outer-Iter.   Inner-Iter.     Column Row Layer    Maximum-Head-Change  Column Row Layer    Maximum-Flux-Residual          L2-NORM 
          0                 1           2             6    3     2       0.5732839573E-01       4    9    2         0.1062487967E+01      0.4199556712E+01
          0                 2           2             4    9     2      -0.1778472118E-02       4    9    2        -0.4915599244E-01      0.1447064069E+00
          0                 3           1             3   12     2       0.2566981916E-04       3   12    2         0.7647285174E-03      0.2089135922E-02

    ------------------------------------------------
       NWT REQUIRED            3 OUTER ITERATIONS 
       AND A TOTAL OF          5 INNER ITERATIONS.
    ------------------------------------------------

 NO OUTPUT CONTROL FOR STRESS PERIOD    3   TIME STEP    7
 ..........LAKE  1 IS DRY..........
 
 SOLVING FOR HEAD 
                                                   Max.-Head-Change                         Max.-Flux-Residual
  Residual-Control   Outer-Iter.   Inner-Iter.     Column Row Layer    Maximum-Head-Change  Column Row Layer    Maximum-Flux-Residual          L2-NORM 
          0                 1           2             6    3     2       0.5584935904E-01       4    9    2         0.1039078536E+01      0.4165311437E+01
          0                 2           2             4    9     2      -0.1739142802E-02       4    9    2        -0.4809846148E-01      0.1470646709E+00
          0                 3           1             3   12     2       0.2519844276E-04       6   11    2         0.7600399022E-03      0.2285646163E-02

    ------------------------------------------------
       NWT REQUIRED            3 OUTER ITERATIONS 
       AND A TOTAL OF          5 INNER ITERATIONS.
    ------------------------------------------------

 NO OUTPUT CONTROL FOR STRESS PERIOD    3   TIME STEP    8
 ..........LAKE  1 IS DRY..........
 
 SOLVING FOR HEAD 
                                                   Max.-Head-Change                         Max.-Flux-Residual
  Residual-Control   Outer-Iter.   Inner-Iter.     Column Row Layer    Maximum-Head-Change  Column Row Layer    Maximum-Flux-Residual          L2-NORM 
          0                 1           2             6    3     2       0.5447499133E-01       4    8    2         0.1017821224E+01      0.4045834627E+01
          0                 2           2             4    8     2      -0.1703049315E-02       4    9    2        -0.4705665576E-01      0.1420789657E+00
          0                 3           1             6   11     2       0.2600799607E-04       6   11    2         0.7923385342E-03      0.2280896480E-02

    ------------------------------------------------
       NWT REQUIRED            3 OUTER ITERATIONS 
       AND A TOTAL OF          5 INNER ITERATIONS.
    ------------------------------------------------

 NO OUTPUT CONTROL FOR STRESS PERIOD    3   TIME STEP    9
 ..........LAKE  1 IS DRY..........
 
 SOLVING FOR HEAD 
                                                   Max.-Head-Change                         Max.-Flux-Residual
  Residual-Control   Outer-Iter.   Inner-Iter.     Column Row Layer    Maximum-Head-Change  Column Row Layer    Maximum-Flux-Residual          L2-NORM 
          0                 1           2             6    3     2       0.5311742016E-01       4    8    2         0.9971118394E+00      0.3907981907E+01
          0                 2           2             4    8     2      -0.1668602397E-02       4    8    2        -0.4606724321E-01      0.1381051809E+00
          0                 3           1             6   11     2       0.2733147759E-04       6   11    2         0.8269939094E-03      0.2327881081E-02

    ------------------------------------------------
       NWT REQUIRED            3 OUTER ITERATIONS 
       AND A TOTAL OF          5 INNER ITERATIONS.
    ------------------------------------------------

 OUTPUT CONTROL FOR STRESS PERIOD    3   TIME STEP   10
    PRINT BUDGET
    SAVE BUDGET

            WELLS   PERIOD    3   STEP  10
 WELL      1   LAYER   2   ROW     6   COL     4   RATE    -1.00000    
 WELL      2   LAYER   2   ROW     6   COL     5   RATE    -1.00000    
 WELL      3   LAYER   2   ROW     7   COL     4   RATE    -1.00000    
 WELL      4   LAYER   2   ROW     7   COL     5   RATE    -1.00000    
 WELL      5   LAYER   2   ROW     8   COL     4   RATE    -1.00000    
 WELL      6   LAYER   2   ROW     8   COL     5   RATE    -1.00000    
 WELL      7   LAYER   2   ROW     9   COL     4   RATE    -1.00000    
 WELL      8   LAYER   2   ROW     9   COL     5   RATE    -1.00000    
 WELL      9   LAYER   2   ROW    10   COL     4   RATE    -1.00000    
 WELL     10   LAYER   2   ROW    10   COL     5   RATE    -1.00000    

  HEAD DEP BOUNDS   PERIOD    3   STEP    10
 BOUNDARY      1   LAYER   2   ROW    13   COL     1   RATE   -0.290385    
 BOUNDARY      2   LAYER   2   ROW    14   COL     9   RATE    0.214579    



 STREAM LISTING     PERIOD      3   STEP       10

 LAYER ROW COL. STREAM  RCH.  FLOW INTO     FLOW TO   FLOW OUT OF   OVRLND.     DIRECT     STREAM       STREAM     STREAM     STREAM   STREAMBED  STREAMBED
                SEG.NO.  NO.  STRM. RCH.    AQUIFER    STRM. RCH.    RUNOFF     PRECIP       ET          HEAD       DEPTH      WIDTH   CONDCTNC.   GRADIENT

   2    1    1     1     1    2.4000E+01  1.9215E+00   2.2079E+01  0.000E+00  0.000E+00  0.000E+00  1.09420E+03  1.150E+00  1.266E+01  5.698E-01  1.124E+00
   2    2    2     1     2    2.2079E+01  3.4713E+00   1.8607E+01  0.000E+00  0.000E+00  0.000E+00  1.08916E+03  1.106E+00  1.208E+01  8.454E-01  1.369E+00
   2    3    3     1     3    1.8607E+01  2.7118E+00   1.5895E+01  0.000E+00  0.000E+00  0.000E+00  1.08347E+03  1.054E+00  1.115E+01  6.689E-01  1.351E+00
   2    3    4     1     4    1.5895E+01  2.2935E+00   1.3602E+01  0.000E+00  0.000E+00  0.000E+00  1.07842E+03  1.007E+00  1.031E+01  5.724E-01  1.336E+00
   2    4    5     2     1    3.6019E+00  2.5661E+00   1.0357E+00  0.000E+00  0.000E+00  0.000E+00  1.07222E+03  2.899E-01  1.200E+01  7.800E-01  1.097E+00
   2    5    6     2     2    1.0357E+00  1.0357E+00   0.0000E+00  0.000E+00  0.000E+00  0.000E+00  1.06655E+03  4.022E-02  1.200E+01  6.000E-01  1.013E+00
   2    6    6     2     3    0.0000E+00  0.0000E+00   0.0000E+00  0.000E+00  0.000E+00  0.000E+00  1.06179E+03  0.000E+00  1.200E+01  6.000E-01  1.000E+00
   2    7    6     2     4    0.0000E+00  0.0000E+00   0.0000E+00  0.000E+00  0.000E+00  0.000E+00  1.05708E+03  0.000E+00  1.200E+01  6.000E-01  1.000E+00
   2    8    6     2     5    0.0000E+00  0.0000E+00   0.0000E+00  0.000E+00  0.000E+00  0.000E+00  1.05236E+03  0.000E+00  1.200E+01  6.000E-01  1.000E+00
   2    3    5     3     1    1.0000E+01  2.8252E+00   7.1748E+00  0.000E+00  0.000E+00  0.000E+00  1.07555E+03  1.909E+00  9.636E+00  7.227E-01  1.955E+00
   2    3    6     3     2    7.1748E+00  2.4905E+00   4.6843E+00  0.000E+00  0.000E+00  0.000E+00  1.07264E+03  1.727E+00  8.909E+00  6.682E-01  1.864E+00
   2    3    7     3     3    4.6843E+00  1.9718E+00   2.7125E+00  0.000E+00  0.000E+00  0.000E+00  1.06987E+03  1.555E+00  8.218E+00  5.547E-01  1.777E+00
   2    4    8     3     4    2.7125E+00  2.2567E+00   4.5579E-01  0.000E+00  0.000E+00  0.000E+00  1.06682E+03  1.364E+00  7.455E+00  6.709E-01  1.682E+00
   2    5    8     3     5    4.5579E-01  4.5579E-01   0.0000E+00  0.000E+00  0.000E+00  0.000E+00  1.06362E+03  0.000E+00  6.655E+00  4.991E-01  1.582E+00
   2    6    8     3     6    0.0000E+00  0.0000E+00   0.0000E+00  0.000E+00  0.000E+00  0.000E+00  1.06055E+03  0.000E+00  6.145E+00  1.844E-01  1.000E+00
   2    5   10     4     1    1.0000E+01  9.0525E-01   9.0947E+00  0.000E+00  0.000E+00  0.000E+00  1.07835E+03  6.210E-01  1.000E+01  2.500E-01  1.207E+00
   2    5    9     4     2    9.0947E+00  1.7835E+00   7.3113E+00  0.000E+00  0.000E+00  0.000E+00  1.07148E+03  5.670E-01  1.000E+01  5.000E-01  1.189E+00
   2    6    8     4     3    7.3113E+00  1.2257E+00   6.0855E+00  0.000E+00  0.000E+00  0.000E+00  1.06368E+03  5.021E-01  1.000E+01  3.500E-01  1.167E+00
   2    6    8     5     1    6.0855E+00  1.4716E+00   4.6139E+00  0.000E+00  0.000E+00  0.000E+00  1.05854E+03  5.396E-01  1.039E+01  4.158E-01  1.180E+00
   2    7    7     5     2    4.6139E+00  1.4897E+00   3.1242E+00  0.000E+00  0.000E+00  0.000E+00  1.05398E+03  4.817E-01  8.557E+00  4.279E-01  1.161E+00
   2    8    7     5     3    3.1242E+00  8.2855E-01   2.2957E+00  0.000E+00  0.000E+00  0.000E+00  1.04968E+03  4.253E-01  6.911E+00  2.419E-01  1.142E+00
   2    8    6     5     4    2.2957E+00  4.9455E-01   1.8011E+00  0.000E+00  0.000E+00  0.000E+00  1.04664E+03  3.856E-01  5.843E+00  1.461E-01  1.129E+00
   2    9    6     6     1    1.8011E+00  1.8011E+00   0.0000E+00  0.000E+00  0.000E+00  0.000E+00  1.04278E+03  5.669E-02  1.200E+01  6.000E-01  1.019E+00
   2   10    7     6     2    0.0000E+00  0.0000E+00   0.0000E+00  0.000E+00  0.000E+00  0.000E+00  1.03818E+03  0.000E+00  1.200E+01  6.000E-01  1.000E+00
   2   11    7     6     3    0.0000E+00  0.0000E+00   0.0000E+00  0.000E+00  0.000E+00  0.000E+00  1.03364E+03  0.000E+00  1.200E+01  6.000E-01  1.000E+00
   2   12    7     6     4    0.0000E+00  0.0000E+00   0.0000E+00  0.000E+00  0.000E+00  0.000E+00  1.02909E+03  0.000E+00  1.200E+01  6.000E-01  5.437E-01
   2   13    7     6     5    0.0000E+00 -7.4384E-01   7.4384E-01  0.000E+00  0.000E+00  0.000E+00  1.02601E+03  9.778E-02  1.200E+01  2.400E-01 -1.033E+00
   2   14    9     7     1    1.5000E+02  2.8580E+00   1.4714E+02  0.000E+00  0.000E+00  0.000E+00  1.03986E+03  2.284E+00  5.528E+01  5.591E+00  1.704E-01
   2   13    8     7     2    1.4714E+02  3.9242E+00   1.4322E+02  0.000E+00  0.000E+00  0.000E+00  1.03477E+03  2.266E+00  5.520E+01  6.140E+00  2.130E-01
   2   13    7     7     3    1.4322E+02  3.1192E+00   1.4010E+02  0.000E+00  0.000E+00  0.000E+00  1.02967E+03  2.247E+00  5.511E+01  5.573E+00  1.866E-01
   2   13    6     8     1    1.4084E+02  1.2346E+00   1.3961E+02  0.000E+00  0.000E+00  0.000E+00  1.02462E+03  2.747E+00  3.982E+01  4.058E+00  1.014E-01
   2   13    5     8     2    1.3961E+02 -1.9820E+00   1.4159E+02  0.000E+00  0.000E+00  0.000E+00  1.01837E+03  2.749E+00  3.986E+01  4.062E+00 -1.626E-01
   2   13    4     8     3    1.4159E+02 -5.0232E+00   1.4661E+02  0.000E+00  0.000E+00  0.000E+00  1.01215E+03  2.775E+00  4.023E+01  4.100E+00 -4.084E-01
   2   13    3     8     4    1.4661E+02 -5.7787E+00   1.5239E+02  0.000E+00  0.000E+00  0.000E+00  1.00594E+03  2.813E+00  4.079E+01  4.157E+00 -4.634E-01
   2   13    2     8     5    1.5239E+02 -3.4809E+00   1.5587E+02  0.000E+00  0.000E+00  0.000E+00  9.99721E+02  2.846E+00  4.126E+01  4.205E+00 -2.759E-01
   2   13    1     8     6    1.5587E+02 -2.2894E+00   1.5816E+02  0.000E+00  0.000E+00  0.000E+00  9.94741E+02  2.866E+00  4.155E+01  2.540E+00 -3.004E-01
   2    4    5     9     1    0.0000E+00  0.0000E+00   0.0000E+00  0.000E+00  0.000E+00  0.000E+00  1.06000E+03  0.000E+00  2.000E+01  2.000E-03  1.000E+00
   2    4    5    10     1    0.0000E+00  0.0000E+00   0.0000E+00  0.000E+00  0.000E+00  0.000E+00  1.08000E+03  0.000E+00  2.000E+01  2.000E-03  1.000E+00



 ..........LAKE  1 IS DRY..........

     SECTIONS OF THE LAKE BOTTOM HAVE BECOME DRY.  THE DRYSECTIONS
     LIE ABOVE THE FOLLOWING  1 AQUIFER CELLS (LAYER,ROW,COLUMN):
     (  2,  4,  5)  (

 PERIOD     3     TIME STEP    10     TIME STEP LENGTH  1.7520E+05
 PERIOD TIME  1.7520E+06     TOTAL SIMULATION TIME  7.0080E+06


                 HYDROLOGIC BUDGET SUMMARIES FOR SIMULATED LAKES
     (ALL FLUID FLUXES ARE VOLUMES ADDED TO THE LAKE DURING PRESENT TIME STEP)
     ----------------------------------------------------------------------------------------
 LAKE    STAGE         VOLUME     VOL. CHANGE      PRECIP     EVAPORATION    SPECIFIED RUNOFF     COMPUTED RUNOFF    TOTAL RUNOFF
   1  1.074500E+03  0.000000E+00  0.000000E+00  0.000000E+00  0.000000E+00   0.000000E+00          0.000000E+00      0.000000E+00

            GROUND WATER            SURFACE WATER        WATER          UZF INFIL.
 LAKE    INFLOW     OUTFLOW      INFLOW     OUTFLOW       USE        FROM LAKE
   1  0.0000E+00  0.0000E+00  0.0000E+00  0.0000E+00  0.0000E+00       0.0000E+00

      CONNECTED LAKE   TIME-STEP         STAGE-CHANGE          PERCENT
 LAKE    INFLUX      SURFACE AREA   TIME STEP  CUMULATIVE    DISCREPANCY
   1   0.0000E+00     0.0000E+00   0.0000E+00  0.0000E+00       0.000
 --------------------------------------------------------------------------------



            CUMULATIVE HYDROLOGIC BUDGET SUMMARIES FOR SIMULATED LAKES
     (ALL FLUID FLUXES ARE SUMS OF VOLUMES ADDED TO THE LAKE SINCE INITIAL TIME)
     ---------------------------------------------------------------------------
 LAKE       PRECIP       EVAP     SPECIFIED RUNOFF   COMPUTED RUNOFF   TOTAL RUNOFF
   1     0.0000E+00  0.0000E+00       0.0000E+00       0.0000E+00       0.0000E+00

            GROUND WATER            SURFACE WATER       UZF INFIL.
 LAKE    INFLOW     OUTFLOW      INFLOW     OUTFLOW     FROM LAKE
   1  0.0000E+00  0.0000E+00  0.0000E+00  0.0000E+00    0.0000E+00

         WATER    CONNECTED LAKE   CHANGE       PERCENT
 LAKE     USE         INFLUX       IN VOL.    DISCREPANCY
   1   0.0000E+00   0.0000E+00   0.0000E+00      0.000
 --------------------------------------------------------------------------------

 UBDSV3 SAVING "           GW ET" ON UNIT  61 AT TIME STEP    10, STRESS PERIOD   3
 UBDSV3 SAVING "    UZF RECHARGE" ON UNIT  61 AT TIME STEP    10, STRESS PERIOD   3
 UBDSV3 SAVING " SURFACE LEAKAGE" ON UNIT  61 AT TIME STEP    10, STRESS PERIOD   3
 UBDSV3 SAVING "       HORT+DUNN" ON UNIT  61 AT TIME STEP    10, STRESS PERIOD   3
 UBDSV3 SAVING "  STORAGE CHANGE" ON UNIT  61 AT TIME STEP    10, STRESS PERIOD   3


UNSATURATED ZONE PACKAGE VOLUMETRIC BUDGET FOR  TIME STEP    10 STRESS PERIOD    3
  ------------------------------------------------------------------------------



     CUMULATIVE VOLUMES      L**3       RATES FOR THIS TIME STEP      L**3/T
     ------------------                 ------------------------

           IN:                                      IN:
           ---                                      ---
        INFILTRATION =   327917460.0000          INFILTRATION =          84.5000

          OUT:                                     OUT:
          ----                                     ----
              UZF ET =   468019143.8721                UZF ET =          58.8232
        UZF RECHARGE =   158133251.9958          UZF RECHARGE =          27.0968

            IN - OUT =  -298234935.8679              IN - OUT =          -1.4200

          STORAGE:                                 STORAGE:
          --------                                 --------
      STORAGE CHANGE =  -298158140.6525        STORAGE CHANGE =          -1.4134

 PERCENT DISCREPANCY IS DIFFERENCE BETWEEN IN-OUT MINUS CHANGE IN STORAGE
 DIVIDED BY THE AVERAGE OF IN AND OUT TIMES 100

 PERCENT DISCREPANCY =          -0.00     PERCENT DISCREPANCY =          -0.01






1
  VOLUMETRIC BUDGET FOR ENTIRE MODEL AT END OF TIME STEP   10, STRESS PERIOD   3
  ------------------------------------------------------------------------------

     CUMULATIVE VOLUMES      L**3       RATES FOR THIS TIME STEP      L**3/T
     ------------------                 ------------------------

           IN:                                      IN:
           ---                                      ---
             STORAGE =     8855126.0000               STORAGE =           0.9156
       CONSTANT HEAD =           0.0000         CONSTANT HEAD =           0.0000
               WELLS =           0.0000                 WELLS =           0.0000
     HEAD DEP BOUNDS =     1507170.3750       HEAD DEP BOUNDS =           0.2146
      STREAM LEAKAGE =   334686496.0000        STREAM LEAKAGE =          45.1359
       LAKE  SEEPAGE =           0.0000         LAKE  SEEPAGE =           0.0000
        UZF RECHARGE =   158133248.0000          UZF RECHARGE =          27.0968
               GW ET =           0.0000                 GW ET =           0.0000
     SURFACE LEAKAGE =           0.0000       SURFACE LEAKAGE =           0.0000

            TOTAL IN =   503182048.0000              TOTAL IN =          73.3628

          OUT:                                     OUT:
          ----                                     ----
             STORAGE =   165202320.0000               STORAGE =          30.9753
       CONSTANT HEAD =           0.0000         CONSTANT HEAD =           0.0000
               WELLS =   122640000.0000                 WELLS =          10.0000
     HEAD DEP BOUNDS =     2017819.3750       HEAD DEP BOUNDS =           0.2904
      STREAM LEAKAGE =   126551248.0000        STREAM LEAKAGE =          19.2980
       LAKE  SEEPAGE =           0.0000         LAKE  SEEPAGE =           0.0000
        UZF RECHARGE =           0.0000          UZF RECHARGE =           0.0000
               GW ET =    86764192.0000                 GW ET =          12.7991
     SURFACE LEAKAGE =           0.0000       SURFACE LEAKAGE =           0.0000

           TOTAL OUT =   503175584.0000             TOTAL OUT =          73.3628

            IN - OUT =        6464.0000              IN - OUT =       2.2888E-05

 PERCENT DISCREPANCY =           0.00     PERCENT DISCREPANCY =           0.00






         TIME SUMMARY AT END OF TIME STEP   10 IN STRESS PERIOD    3
                    SECONDS     MINUTES      HOURS       DAYS        YEARS
                    -----------------------------------------------------------
   TIME STEP LENGTH 1.75200E+05  2920.0      48.667      2.0278     5.55175E-03
 STRESS PERIOD TIME 1.75200E+06  29200.      486.67      20.278     5.55175E-02
         TOTAL TIME 7.00800E+06 1.16800E+05  1946.7      81.111     0.22207    
1
 
 SOLVING FOR HEAD 
                                                   Max.-Head-Change                         Max.-Flux-Residual
  Residual-Control   Outer-Iter.   Inner-Iter.     Column Row Layer    Maximum-Head-Change  Column Row Layer    Maximum-Flux-Residual          L2-NORM 
          0                 1           2             6    3     2       0.5176683344E-01       4    8    2         0.9763811856E+00      0.3862704518E+01
          0                 2           2             4    8     2      -0.1633758465E-02       4    8    2        -0.4511873003E-01      0.1395496937E+00
          0                 3           1             6   11     2       0.2853581321E-04       6   11    2         0.8617962158E-03      0.2488577507E-02

    ------------------------------------------------
       NWT REQUIRED            3 OUTER ITERATIONS 
       AND A TOTAL OF          5 INNER ITERATIONS.
    ------------------------------------------------

 NO OUTPUT CONTROL FOR STRESS PERIOD    3   TIME STEP   11
 ..........LAKE  1 IS DRY..........
 
 SOLVING FOR HEAD 
                                                   Max.-Head-Change                         Max.-Flux-Residual
  Residual-Control   Outer-Iter.   Inner-Iter.     Column Row Layer    Maximum-Head-Change  Column Row Layer    Maximum-Flux-Residual          L2-NORM 
          0                 1           2             6    3     2       0.5042395139E-01       4    8    2         0.9559110965E+00      0.3788443646E+01
          0                 2           2             4    8     2      -0.1600419430E-02       6    5    2         0.4841693639E-01      0.1403129779E+00
          0                 3           1             6   11     2       0.2984760755E-04       6   11    2         0.8969287992E-03      0.2658732090E-02

    ------------------------------------------------
       NWT REQUIRED            3 OUTER ITERATIONS 
       AND A TOTAL OF          5 INNER ITERATIONS.
    ------------------------------------------------

 NO OUTPUT CONTROL FOR STRESS PERIOD    3   TIME STEP   12
 ..........LAKE  1 IS DRY..........
 
 SOLVING FOR HEAD 
                                                   Max.-Head-Change                         Max.-Flux-Residual
  Residual-Control   Outer-Iter.   Inner-Iter.     Column Row Layer    Maximum-Head-Change  Column Row Layer    Maximum-Flux-Residual          L2-NORM 
          0                 1           2             6    3     2       0.4908822350E-01       4    8    2         0.9352440602E+00      0.3659482925E+01
          0                 2           2             4    8     2      -0.1565549010E-02       4    8    2        -0.4324569875E-01      0.1352749034E+00
          0                 3           1             6   11     2       0.3100497840E-04       6   11    2         0.9308066583E-03      0.2656029722E-02

    ------------------------------------------------
       NWT REQUIRED            3 OUTER ITERATIONS 
       AND A TOTAL OF          5 INNER ITERATIONS.
    ------------------------------------------------

 NO OUTPUT CONTROL FOR STRESS PERIOD    3   TIME STEP   13
 ..........LAKE  1 IS DRY..........
 
 SOLVING FOR HEAD 
                                                   Max.-Head-Change                         Max.-Flux-Residual
  Residual-Control   Outer-Iter.   Inner-Iter.     Column Row Layer    Maximum-Head-Change  Column Row Layer    Maximum-Flux-Residual          L2-NORM 
          0                 1           2             6    3     2       0.4777483198E-01       4    8    2         0.9150900607E+00      0.3529976441E+01
          0                 2           2             4    8     2      -0.1532375309E-02       4    8    2        -0.4233064849E-01      0.1314410748E+00
          0                 3           1             6   11     2       0.3223891943E-04       6   11    2         0.9638989386E-03      0.2700895956E-02

    ------------------------------------------------
       NWT REQUIRED            3 OUTER ITERATIONS 
       AND A TOTAL OF          5 INNER ITERATIONS.
    ------------------------------------------------

 NO OUTPUT CONTROL FOR STRESS PERIOD    3   TIME STEP   14
 ..........LAKE  1 IS DRY..........
 
 SOLVING FOR HEAD 
                                                   Max.-Head-Change                         Max.-Flux-Residual
  Residual-Control   Outer-Iter.   Inner-Iter.     Column Row Layer    Maximum-Head-Change  Column Row Layer    Maximum-Flux-Residual          L2-NORM 
          0                 1           2            10   10     2       0.4688127398E-01       4    8    2         0.8950340908E+00      0.3370450173E+01
          0                 2           2             4    8     2      -0.1498904179E-02       4    8    2        -0.4141296374E-01      0.1241257236E+00
          0                 3           1             6   11     2       0.3329286890E-04       6   11    2         0.9952099185E-03      0.2576871804E-02

    ------------------------------------------------
       NWT REQUIRED            3 OUTER ITERATIONS 
       AND A TOTAL OF          5 INNER ITERATIONS.
    ------------------------------------------------

 OUTPUT CONTROL FOR STRESS PERIOD    3   TIME STEP   15
    PRINT BUDGET
    PRINT HEAD FOR ALL LAYERS
    SAVE HEAD FOR ALL LAYERS
    SAVE BUDGET

            WELLS   PERIOD    3   STEP  15
 WELL      1   LAYER   2   ROW     6   COL     4   RATE    -1.00000    
 WELL      2   LAYER   2   ROW     6   COL     5   RATE    -1.00000    
 WELL      3   LAYER   2   ROW     7   COL     4   RATE    -1.00000    
 WELL      4   LAYER   2   ROW     7   COL     5   RATE    -1.00000    
 WELL      5   LAYER   2   ROW     8   COL     4   RATE    -1.00000    
 WELL      6   LAYER   2   ROW     8   COL     5   RATE    -1.00000    
 WELL      7   LAYER   2   ROW     9   COL     4   RATE    -1.00000    
 WELL      8   LAYER   2   ROW     9   COL     5   RATE    -1.00000    
 WELL      9   LAYER   2   ROW    10   COL     4   RATE    -1.00000    
 WELL     10   LAYER   2   ROW    10   COL     5   RATE    -1.00000    

  HEAD DEP BOUNDS   PERIOD    3   STEP    15
 BOUNDARY      1   LAYER   2   ROW    13   COL     1   RATE   -0.290716    
 BOUNDARY      2   LAYER   2   ROW    14   COL     9   RATE    0.214608    



 STREAM LISTING     PERIOD      3   STEP       15

 LAYER ROW COL. STREAM  RCH.  FLOW INTO     FLOW TO   FLOW OUT OF   OVRLND.     DIRECT     STREAM       STREAM     STREAM     STREAM   STREAMBED  STREAMBED
                SEG.NO.  NO.  STRM. RCH.    AQUIFER    STRM. RCH.    RUNOFF     PRECIP       ET          HEAD       DEPTH      WIDTH   CONDCTNC.   GRADIENT

   2    1    1     1     1    2.3879E+01  1.9270E+00   2.1952E+01  0.000E+00  0.000E+00  0.000E+00  1.09420E+03  1.148E+00  1.264E+01  5.687E-01  1.130E+00
   2    2    2     1     2    2.1952E+01  3.4617E+00   1.8490E+01  0.000E+00  0.000E+00  0.000E+00  1.08916E+03  1.104E+00  1.205E+01  8.435E-01  1.368E+00
   2    3    3     1     3    1.8490E+01  2.7018E+00   1.5789E+01  0.000E+00  0.000E+00  0.000E+00  1.08347E+03  1.052E+00  1.111E+01  6.668E-01  1.351E+00
   2    3    4     1     4    1.5789E+01  2.2844E+00   1.3504E+01  0.000E+00  0.000E+00  0.000E+00  1.07841E+03  1.005E+00  1.028E+01  5.704E-01  1.335E+00
   2    4    5     2     1    3.5041E+00  2.5605E+00   9.4357E-01  0.000E+00  0.000E+00  0.000E+00  1.07222E+03  2.828E-01  1.200E+01  7.800E-01  1.094E+00
   2    5    6     2     2    9.4357E-01  9.4357E-01   0.0000E+00  0.000E+00  0.000E+00  0.000E+00  1.06653E+03  1.902E-02  1.200E+01  6.000E-01  1.006E+00
   2    6    6     2     3    0.0000E+00  0.0000E+00   0.0000E+00  0.000E+00  0.000E+00  0.000E+00  1.06179E+03  0.000E+00  1.200E+01  6.000E-01  1.000E+00
   2    7    6     2     4    0.0000E+00  0.0000E+00   0.0000E+00  0.000E+00  0.000E+00  0.000E+00  1.05708E+03  0.000E+00  1.200E+01  6.000E-01  1.000E+00
   2    8    6     2     5    0.0000E+00  0.0000E+00   0.0000E+00  0.000E+00  0.000E+00  0.000E+00  1.05236E+03  0.000E+00  1.200E+01  6.000E-01  1.000E+00
   2    3    5     3     1    1.0000E+01  2.8252E+00   7.1748E+00  0.000E+00  0.000E+00  0.000E+00  1.07555E+03  1.909E+00  9.636E+00  7.227E-01  1.955E+00
   2    3    6     3     2    7.1748E+00  2.4905E+00   4.6843E+00  0.000E+00  0.000E+00  0.000E+00  1.07264E+03  1.727E+00  8.909E+00  6.682E-01  1.864E+00
   2    3    7     3     3    4.6843E+00  1.9718E+00   2.7125E+00  0.000E+00  0.000E+00  0.000E+00  1.06987E+03  1.555E+00  8.218E+00  5.547E-01  1.777E+00
   2    4    8     3     4    2.7125E+00  2.2567E+00   4.5579E-01  0.000E+00  0.000E+00  0.000E+00  1.06682E+03  1.364E+00  7.455E+00  6.709E-01  1.682E+00
   2    5    8     3     5    4.5579E-01  4.5579E-01   0.0000E+00  0.000E+00  0.000E+00  0.000E+00  1.06362E+03  0.000E+00  6.655E+00  4.991E-01  1.582E+00
   2    6    8     3     6    0.0000E+00  0.0000E+00   0.0000E+00  0.000E+00  0.000E+00  0.000E+00  1.06055E+03  0.000E+00  6.145E+00  1.844E-01  1.000E+00
   2    5   10     4     1    1.0000E+01  9.0525E-01   9.0947E+00  0.000E+00  0.000E+00  0.000E+00  1.07835E+03  6.210E-01  1.000E+01  2.500E-01  1.207E+00
   2    5    9     4     2    9.0947E+00  1.7835E+00   7.3113E+00  0.000E+00  0.000E+00  0.000E+00  1.07148E+03  5.670E-01  1.000E+01  5.000E-01  1.189E+00
   2    6    8     4     3    7.3113E+00  1.2257E+00   6.0855E+00  0.000E+00  0.000E+00  0.000E+00  1.06368E+03  5.021E-01  1.000E+01  3.500E-01  1.167E+00
   2    6    8     5     1    6.0855E+00  1.4716E+00   4.6139E+00  0.000E+00  0.000E+00  0.000E+00  1.05854E+03  5.396E-01  1.039E+01  4.158E-01  1.180E+00
   2    7    7     5     2    4.6139E+00  1.4897E+00   3.1242E+00  0.000E+00  0.000E+00  0.000E+00  1.05398E+03  4.817E-01  8.557E+00  4.279E-01  1.161E+00
   2    8    7     5     3    3.1242E+00  8.2855E-01   2.2957E+00  0.000E+00  0.000E+00  0.000E+00  1.04968E+03  4.253E-01  6.911E+00  2.419E-01  1.142E+00
   2    8    6     5     4    2.2957E+00  4.9455E-01   1.8011E+00  0.000E+00  0.000E+00  0.000E+00  1.04664E+03  3.856E-01  5.843E+00  1.461E-01  1.129E+00
   2    9    6     6     1    1.8011E+00  1.8011E+00   0.0000E+00  0.000E+00  0.000E+00  0.000E+00  1.04278E+03  5.669E-02  1.200E+01  6.000E-01  1.019E+00
   2   10    7     6     2    0.0000E+00  0.0000E+00   0.0000E+00  0.000E+00  0.000E+00  0.000E+00  1.03818E+03  0.000E+00  1.200E+01  6.000E-01  1.000E+00
   2   11    7     6     3    0.0000E+00  0.0000E+00   0.0000E+00  0.000E+00  0.000E+00  0.000E+00  1.03364E+03  0.000E+00  1.200E+01  6.000E-01  1.000E+00
   2   12    7     6     4    0.0000E+00  0.0000E+00   0.0000E+00  0.000E+00  0.000E+00  0.000E+00  1.02909E+03  0.000E+00  1.200E+01  6.000E-01  5.403E-01
   2   13    7     6     5    0.0000E+00 -7.4502E-01   7.4502E-01  0.000E+00  0.000E+00  0.000E+00  1.02601E+03  9.787E-02  1.200E+01  2.400E-01 -1.035E+00
   2   14    9     7     1    1.5000E+02  2.8622E+00   1.4714E+02  0.000E+00  0.000E+00  0.000E+00  1.03986E+03  2.284E+00  5.528E+01  5.591E+00  1.706E-01
   2   13    8     7     2    1.4714E+02  3.9186E+00   1.4322E+02  0.000E+00  0.000E+00  0.000E+00  1.03477E+03  2.266E+00  5.520E+01  6.140E+00  2.127E-01
   2   13    7     7     3    1.4322E+02  3.0917E+00   1.4013E+02  0.000E+00  0.000E+00  0.000E+00  1.02967E+03  2.247E+00  5.511E+01  5.573E+00  1.849E-01
   2   13    6     8     1    1.4087E+02  1.2018E+00   1.3967E+02  0.000E+00  0.000E+00  0.000E+00  1.02462E+03  2.747E+00  3.983E+01  4.059E+00  9.870E-02
   2   13    5     8     2    1.3967E+02 -2.0149E+00   1.4169E+02  0.000E+00  0.000E+00  0.000E+00  1.01837E+03  2.750E+00  3.987E+01  4.063E+00 -1.653E-01
   2   13    4     8     3    1.4169E+02 -5.0592E+00   1.4674E+02  0.000E+00  0.000E+00  0.000E+00  1.01215E+03  2.776E+00  4.025E+01  4.101E+00 -4.112E-01
   2   13    3     8     4    1.4674E+02 -5.8098E+00   1.5255E+02  0.000E+00  0.000E+00  0.000E+00  1.00594E+03  2.814E+00  4.081E+01  4.159E+00 -4.657E-01
   2   13    2     8     5    1.5255E+02 -3.4992E+00   1.5605E+02  0.000E+00  0.000E+00  0.000E+00  9.99722E+02  2.847E+00  4.128E+01  4.207E+00 -2.773E-01
   2   13    1     8     6    1.5605E+02 -2.3092E+00   1.5836E+02  0.000E+00  0.000E+00  0.000E+00  9.94742E+02  2.867E+00  4.157E+01  2.542E+00 -3.029E-01
   2    4    5     9     1    0.0000E+00  0.0000E+00   0.0000E+00  0.000E+00  0.000E+00  0.000E+00  1.06000E+03  0.000E+00  2.000E+01  2.000E-03  1.000E+00
   2    4    5    10     1    0.0000E+00  0.0000E+00   0.0000E+00  0.000E+00  0.000E+00  0.000E+00  1.08000E+03  0.000E+00  2.000E+01  2.000E-03  1.000E+00



 ..........LAKE  1 IS DRY..........

     SECTIONS OF THE LAKE BOTTOM HAVE BECOME DRY.  THE DRYSECTIONS
     LIE ABOVE THE FOLLOWING  1 AQUIFER CELLS (LAYER,ROW,COLUMN):
     (  2,  4,  5)  (

 PERIOD     3     TIME STEP    15     TIME STEP LENGTH  1.7520E+05
 PERIOD TIME  2.6280E+06     TOTAL SIMULATION TIME  7.8840E+06


                 HYDROLOGIC BUDGET SUMMARIES FOR SIMULATED LAKES
     (ALL FLUID FLUXES ARE VOLUMES ADDED TO THE LAKE DURING PRESENT TIME STEP)
     ----------------------------------------------------------------------------------------
 LAKE    STAGE         VOLUME     VOL. CHANGE      PRECIP     EVAPORATION    SPECIFIED RUNOFF     COMPUTED RUNOFF    TOTAL RUNOFF
   1  1.074500E+03  0.000000E+00  0.000000E+00  0.000000E+00  0.000000E+00   0.000000E+00          0.000000E+00      0.000000E+00

            GROUND WATER            SURFACE WATER        WATER          UZF INFIL.
 LAKE    INFLOW     OUTFLOW      INFLOW     OUTFLOW       USE        FROM LAKE
   1  0.0000E+00  0.0000E+00  0.0000E+00  0.0000E+00  0.0000E+00       0.0000E+00

      CONNECTED LAKE   TIME-STEP         STAGE-CHANGE          PERCENT
 LAKE    INFLUX      SURFACE AREA   TIME STEP  CUMULATIVE    DISCREPANCY
   1   0.0000E+00     0.0000E+00   0.0000E+00  0.0000E+00       0.000
 --------------------------------------------------------------------------------



            CUMULATIVE HYDROLOGIC BUDGET SUMMARIES FOR SIMULATED LAKES
     (ALL FLUID FLUXES ARE SUMS OF VOLUMES ADDED TO THE LAKE SINCE INITIAL TIME)
     ---------------------------------------------------------------------------
 LAKE       PRECIP       EVAP     SPECIFIED RUNOFF   COMPUTED RUNOFF   TOTAL RUNOFF
   1     0.0000E+00  0.0000E+00       0.0000E+00       0.0000E+00       0.0000E+00

            GROUND WATER            SURFACE WATER       UZF INFIL.
 LAKE    INFLOW     OUTFLOW      INFLOW     OUTFLOW     FROM LAKE
   1  0.0000E+00  0.0000E+00  0.0000E+00  0.0000E+00    0.0000E+00

         WATER    CONNECTED LAKE   CHANGE       PERCENT
 LAKE     USE         INFLUX       IN VOL.    DISCREPANCY
   1   0.0000E+00   0.0000E+00   0.0000E+00      0.000
 --------------------------------------------------------------------------------

 UBDSV3 SAVING "           GW ET" ON UNIT  61 AT TIME STEP    15, STRESS PERIOD   3
 UBDSV3 SAVING "    UZF RECHARGE" ON UNIT  61 AT TIME STEP    15, STRESS PERIOD   3
 UBDSV3 SAVING " SURFACE LEAKAGE" ON UNIT  61 AT TIME STEP    15, STRESS PERIOD   3
 UBDSV3 SAVING "       HORT+DUNN" ON UNIT  61 AT TIME STEP    15, STRESS PERIOD   3
 UBDSV3 SAVING "  STORAGE CHANGE" ON UNIT  61 AT TIME STEP    15, STRESS PERIOD   3


UNSATURATED ZONE PACKAGE VOLUMETRIC BUDGET FOR  TIME STEP    15 STRESS PERIOD    3
  ------------------------------------------------------------------------------



     CUMULATIVE VOLUMES      L**3       RATES FOR THIS TIME STEP      L**3/T
     ------------------                 ------------------------

           IN:                                      IN:
           ---                                      ---
        INFILTRATION =   401939460.0000          INFILTRATION =          84.5000

          OUT:                                     OUT:
          ----                                     ----
              UZF ET =   521620812.0399                UZF ET =          62.6255
        UZF RECHARGE =   179968072.7227          UZF RECHARGE =          23.4979

            IN - OUT =  -299649424.7626              IN - OUT =          -1.6234

          STORAGE:                                 STORAGE:
          --------                                 --------
      STORAGE CHANGE =  -299563190.9698        STORAGE CHANGE =          -1.6140

 PERCENT DISCREPANCY IS DIFFERENCE BETWEEN IN-OUT MINUS CHANGE IN STORAGE
 DIVIDED BY THE AVERAGE OF IN AND OUT TIMES 100

 PERCENT DISCREPANCY =          -0.00     PERCENT DISCREPANCY =          -0.01






1
              HEAD IN LAYER   1 AT END OF TIME STEP    15 IN STRESS PERIOD    3
  -----------------------------------------------------------------------------

           1       2       3       4       5       6       7       8       9      10
 ...................................................................................
   1  6999.00 6999.00 6999.00 6999.00 6999.00 6999.00 6999.00 6999.00 6999.00 6999.00
   2  6999.00 6999.00 6999.00 6999.00 6999.00 6999.00 6999.00 6999.00 6999.00 6999.00
   3  6999.00 6999.00 6999.00 6999.00 6999.00 6999.00 6999.00 6999.00 6999.00 6999.00
   4  6999.00 6999.00 6999.00 6999.00 6999.00 6999.00 6999.00 6999.00 6999.00 6999.00
   5  6999.00 6999.00 6999.00 6999.00 6999.00 6999.00 6999.00 6999.00 6999.00 6999.00
   6  6999.00 6999.00 6999.00 6999.00 6999.00 6999.00 6999.00 6999.00 6999.00 6999.00
   7  6999.00 6999.00 6999.00 6999.00 6999.00 6999.00 6999.00 6999.00 6999.00 6999.00
   8  6999.00 6999.00 6999.00 6999.00 6999.00 6999.00 6999.00 6999.00 6999.00 6999.00
   9  6999.00 6999.00 6999.00 6999.00 6999.00 6999.00 6999.00 6999.00 6999.00 6999.00
  10  6999.00 6999.00 6999.00 6999.00 6999.00 6999.00 6999.00 6999.00 6999.00 6999.00
  11  6999.00 6999.00 6999.00 6999.00 6999.00 6999.00 6999.00 6999.00 6999.00 6999.00
  12  6999.00 6999.00 6999.00 6999.00 6999.00 6999.00 6999.00 6999.00 6999.00 6999.00
  13  6999.00 6999.00 6999.00 6999.00 6999.00 6999.00 6999.00 6999.00 6999.00 6999.00
  14  6999.00 6999.00 6999.00 6999.00 6999.00 6999.00 6999.00 6999.00 6999.00 6999.00
  15  6999.00 6999.00 6999.00 6999.00 6999.00 6999.00 6999.00 6999.00 6999.00 6999.00
1
              HEAD IN LAYER   2 AT END OF TIME STEP    15 IN STRESS PERIOD    3
  -----------------------------------------------------------------------------

           1       2       3       4       5       6       7       8       9      10
 ...................................................................................
   1  1090.81 1085.47 6999.00 6999.00 6999.00 6999.00 6999.00 6999.00 6999.00 6999.00
   2  1085.79 1079.59 1072.73 6999.00 6999.00 1063.22 1063.22 1062.97 6999.00 6999.00
   3  6999.00 1069.29 1065.49 1061.59 1062.20 1062.87 1063.22 1061.88 6999.00 6999.00
   4  1057.82 1060.04 1058.68 1055.40 1054.25 1053.42 1054.94 1059.02 1057.94 6999.00
   5  1053.66 1053.08 1051.59 1049.71 1049.42 1049.65 1049.86 1051.62 1055.04 1057.24
   6  1049.49 1047.81 1045.91 1044.49 1044.64 1045.83 1047.17 1049.39 1052.22 1056.41
   7  1046.48 1042.97 1040.94 1039.79 1040.30 1041.88 1043.92 1046.22 1048.88 6999.00
   8  6999.00 1037.80 1036.34 1035.44 1036.08 1037.78 1039.56 1042.82 1044.16 6999.00
   9  6999.00 1032.15 1031.44 1031.02 1031.87 1033.78 1034.92 1037.15 1039.34 6999.00
  10  6999.00 1026.49 1026.52 1026.90 1028.08 1029.91 1031.06 1033.02 1035.45 1035.91
  11  6999.00 1019.55 1020.41 1022.95 1024.90 1027.06 1028.70 1030.91 1034.04 6999.00
  12  1003.10 1009.47 1013.61 1018.00 1021.53 1024.93 1027.47 1030.69 1034.58 6999.00
  13   995.65 1000.55 1007.34 1013.38 1018.87 1024.33 1029.11 1034.13 1036.69 6999.00
  14  6999.00 1006.64 1009.95 1014.75 1019.76 1024.61 1029.74 1035.14 1039.35 6999.00
  15  6999.00 6999.00 1014.10 1016.96 1020.71 1024.09 6999.00 6999.00 6999.00 6999.00

 HEAD WILL BE SAVED ON UNIT   58 AT END OF TIME STEP   15, STRESS PERIOD    3
1
  VOLUMETRIC BUDGET FOR ENTIRE MODEL AT END OF TIME STEP   15, STRESS PERIOD   3
  ------------------------------------------------------------------------------

     CUMULATIVE VOLUMES      L**3       RATES FOR THIS TIME STEP      L**3/T
     ------------------                 ------------------------

           IN:                                      IN:
           ---                                      ---
             STORAGE =     9878641.0000               STORAGE =           0.4190
       CONSTANT HEAD =           0.0000         CONSTANT HEAD =           0.0000
               WELLS =           0.0000                 WELLS =           0.0000
     HEAD DEP BOUNDS =     1695164.3750       HEAD DEP BOUNDS =           0.2146
      STREAM LEAKAGE =   373541600.0000        STREAM LEAKAGE =          44.9533
       LAKE  SEEPAGE =           0.0000         LAKE  SEEPAGE =           0.0000
        UZF RECHARGE =   179968064.0000          UZF RECHARGE =          23.4979
               GW ET =           0.0000                 GW ET =           0.0000
     SURFACE LEAKAGE =           0.0000       SURFACE LEAKAGE =           0.0000

            TOTAL IN =   565083456.0000              TOTAL IN =          69.0848

          OUT:                                     OUT:
          ----                                     ----
             STORAGE =   189933632.0000               STORAGE =          26.6261
       CONSTANT HEAD =           0.0000         CONSTANT HEAD =           0.0000
               WELLS =   131400000.0000                 WELLS =          10.0000
     HEAD DEP BOUNDS =     2272381.7500       HEAD DEP BOUNDS =           0.2907
      STREAM LEAKAGE =   143532512.0000        STREAM LEAKAGE =          19.4373
       LAKE  SEEPAGE =           0.0000         LAKE  SEEPAGE =           0.0000
        UZF RECHARGE =           0.0000          UZF RECHARGE =           0.0000
               GW ET =    97938488.0000                 GW ET =          12.7307
     SURFACE LEAKAGE =           0.0000       SURFACE LEAKAGE =           0.0000

           TOTAL OUT =   565076992.0000             TOTAL OUT =          69.0848

            IN - OUT =        6464.0000              IN - OUT =      -2.2888E-05

 PERCENT DISCREPANCY =           0.00     PERCENT DISCREPANCY =          -0.00






         TIME SUMMARY AT END OF TIME STEP   15 IN STRESS PERIOD    3
                    SECONDS     MINUTES      HOURS       DAYS        YEARS
                    -----------------------------------------------------------
   TIME STEP LENGTH 1.75200E+05  2920.0      48.667      2.0278     5.55175E-03
 STRESS PERIOD TIME 2.62800E+06  43800.      730.00      30.417     8.32763E-02
         TOTAL TIME 7.88400E+06 1.31400E+05  2190.0      91.250     0.24983    
1
1
                            STRESS PERIOD NO.    4, LENGTH =   2628000.    
                            -----------------------------------------------

                              NUMBER OF TIME STEPS =    15

                               MULTIPLIER FOR DELT =     1.000

                            INITIAL TIME STEP SIZE =   175200.0    

 WELL NO.  LAYER   ROW   COL   STRESS RATE         
 --------------------------------------------------
      1      2      6      4      -1.000    
      2      2      6      5      -1.000    
      3      2      7      4      -1.000    
      4      2      7      5      -1.000    
      5      2      8      4      -1.000    
      6      2      8      5      -1.000    
      7      2      9      4      -1.000    
      8      2      9      5      -1.000    
      9      2     10      4      -1.000    
     10      2     10      5      -1.000    

     10 WELLS

 REUSING NON-PARAMETER GHB CELLS FROM LAST STRESS PERIOD

      2 GHB CELLS

 REUSING STREAM SEGMENT DATA FROM LAST STRESS PERIOD



            AREAL INFILTRATION RATE
 READING ON UNIT   19 WITH FORMAT: (10F4.0)            

            1           2           3           4           5           6           7           8           9          10
 ........................................................................................................................
   1   2.0000E-08  4.0000E-08   0.000       0.000       0.000       0.000       0.000       0.000       0.000       0.000    
   2   4.0000E-08  2.0000E-08  4.0000E-08   0.000       0.000      1.6000E-07  1.6000E-07  1.0000E-07   0.000       0.000    
   3    0.000      1.0000E-07  2.0000E-08  2.0000E-08  1.6000E-07  1.6000E-07  1.0000E-07  1.0000E-07   0.000       0.000    
   4   1.6000E-07  1.0000E-07  2.0000E-08  2.0000E-08  2.0000E-08  2.0000E-08  2.0000E-08  2.0000E-08  4.0000E-08   0.000    
   5   1.6000E-07  1.0000E-07  2.0000E-08  2.0000E-08  2.0000E-08  2.0000E-08  2.0000E-08  2.0000E-08  2.0000E-08  2.0000E-08
   6   1.6000E-07  1.0000E-07  1.0000E-07  4.0000E-08  4.0000E-08  2.0000E-08  2.0000E-08  2.0000E-08  2.0000E-08  1.0000E-07
   7   1.6000E-07  1.0000E-07  1.0000E-07  4.0000E-08  4.0000E-08  2.0000E-08  2.0000E-08  4.0000E-08  4.0000E-08   0.000    
   8    0.000      1.0000E-07  1.0000E-07  4.0000E-08  4.0000E-08  2.0000E-08  2.0000E-08  4.0000E-08  1.0000E-07   0.000    
   9    0.000      1.0000E-07  1.0000E-07  4.0000E-08  4.0000E-08  2.0000E-08  2.0000E-08  4.0000E-08  1.0000E-07   0.000    
  10    0.000      1.0000E-07  1.0000E-07  4.0000E-08  4.0000E-08  2.0000E-08  2.0000E-08  4.0000E-08  1.0000E-07  1.6000E-07
  11    0.000      2.0000E-08  2.0000E-08  2.0000E-08  2.0000E-08  2.0000E-08  2.0000E-08  4.0000E-08  1.0000E-07   0.000    
  12   2.0000E-08  2.0000E-08  2.0000E-08  2.0000E-08  2.0000E-08  2.0000E-08  2.0000E-08  2.0000E-08  4.0000E-08   0.000    
  13   2.0000E-08  2.0000E-08  4.0000E-08  4.0000E-08  4.0000E-08  4.0000E-08  4.0000E-08  2.0000E-08  2.0000E-08   0.000    
  14    0.000      4.0000E-08  1.0000E-07  1.0000E-07  1.0000E-07  1.0000E-07  1.0000E-07  4.0000E-08  2.0000E-08   0.000    
  15    0.000       0.000      1.6000E-07  1.6000E-07  1.6000E-07  1.6000E-07   0.000       0.000       0.000       0.000    

USING ET RATE FROM PREVIOUS STRESS PERIOD. CURRENT PERIOD IS:       4

 USING ET EXTINCTION DEPTH FROM PREVIOUS STRESS PERIOD. CURRENT PERIOD IS:       4

 USING EXTINCTION WATER CONTENT FROM PREVIOUS STRESS PERIOD. CURRENT PERIOD IS:       4




 If any subsequent steady-state stress periods, min. and max. stages for each lake will be read in Record 9a.




 REUSING LAKE CONFIGURATION DATA FROM LAST STRESS PERIOD


 LAKE       PRECIP     EVAP     RUNOFF   WITHDRAW   BOTTOM     AREA
----------------------------------------------------------------------
   1     0.000E+00 4.000E-08 0.000E+00  0.000E+00 1.074E+03 2.500E+07




         C               INTERFACE CONDUCTANCES BETWEEN LAKE AND AQUIFER CELLS
   L     O          (IF TYPE = 6, CONDUCTANCE (L^2/T) IS BETWEEN AQUIFER CELL AND OVERLYING LAKE CELL.)
   A     L  L  T    (IF TYPE = 1 TO 4, CONDUCTANCES ARE PER UNIT SATURATED THICKNESS (L/T).)
   Y  R  U  A  Y
   E  O  M  K  P                        LAKEBED      C O N D U C T A N C E S
   R  W  N  E  E     DELTA Y   DELTA X  LEAKANCE   LAKEBED   AQUIFER  COMBINED
 _______________________________________________________________________________
   1  4  4  1  2    5.00E+03  5.00E+03  5.00E-02  2.50E+02  6.00E-03  6.00E-03
   1  3  5  1  3    5.00E+03  5.00E+03  5.00E-02  2.50E+02  1.20E-03  1.20E-03
   2  4  5  1  6    5.00E+03  5.00E+03  5.00E-02  1.25E+06  9.42E+00  9.42E+00
   1  5  5  1  4    5.00E+03  5.00E+03  5.00E-02  2.50E+02  6.00E-03  6.00E-03
   1  4  6  1  1    5.00E+03  5.00E+03  5.00E-02  2.50E+02  6.00E-03  6.00E-03
      LAKE     INFLOWING STREAM SEGMENT
         1                  9

 MAXIMUM NUMBER OF STREAMS INFLOWING TO A LAKE IS    1

      LAKE     OUTFLOWING STREAM SEGMENT
         1                 10

 MAXIMUM NUMBER OF STREAMS OUTFLOWING FROM A LAKE IS    1

 
 SOLVING FOR HEAD 
                                                   Max.-Head-Change                         Max.-Flux-Residual
  Residual-Control   Outer-Iter.   Inner-Iter.     Column Row Layer    Maximum-Head-Change  Column Row Layer    Maximum-Flux-Residual          L2-NORM 
          0                 1           2            10   10     2       0.4681485857E-01       4    8    2         0.8752227871E+00      0.3338316463E+01
          0                 2           2             4    8     2      -0.1465457007E-02       4    8    2        -0.4048932818E-01      0.1223609599E+00
          0                 3           1             6   11     2       0.3434721674E-04       6   11    2         0.1025108669E-02      0.2623211286E-02

    ------------------------------------------------
       NWT REQUIRED            3 OUTER ITERATIONS 
       AND A TOTAL OF          5 INNER ITERATIONS.
    ------------------------------------------------

 NO OUTPUT CONTROL FOR STRESS PERIOD    4   TIME STEP    1
 ..........LAKE  1 IS DRY..........
 
 SOLVING FOR HEAD 
                                                   Max.-Head-Change                         Max.-Flux-Residual
  Residual-Control   Outer-Iter.   Inner-Iter.     Column Row Layer    Maximum-Head-Change  Column Row Layer    Maximum-Flux-Residual          L2-NORM 
          0                 1           2            10   10     2       0.4674119142E-01       4    8    2         0.8559884121E+00      0.3302758998E+01
          0                 2           2             4    8     2      -0.1433776546E-02       4    8    2        -0.3961293000E-01      0.1212845706E+00
          0                 3           1             6   11     2       0.3537249481E-04       6   11    2         0.1053611890E-02      0.2733339487E-02

    ------------------------------------------------
       NWT REQUIRED            3 OUTER ITERATIONS 
       AND A TOTAL OF          5 INNER ITERATIONS.
    ------------------------------------------------

 NO OUTPUT CONTROL FOR STRESS PERIOD    4   TIME STEP    2
 ..........LAKE  1 IS DRY..........
 
 SOLVING FOR HEAD 
                                                   Max.-Head-Change                         Max.-Flux-Residual
  Residual-Control   Outer-Iter.   Inner-Iter.     Column Row Layer    Maximum-Head-Change  Column Row Layer    Maximum-Flux-Residual          L2-NORM 
          0                 1           2            10   10     2       0.4631009338E-01       4    8    2         0.8369118116E+00      0.3197942042E+01
          0                 2           2             4    8     2      -0.1401862931E-02       4    8    2        -0.3873290193E-01      0.1200561945E+00
          0                 3           1             6   11     2       0.3628161183E-04       6   11    2         0.1080338824E-02      0.2842700536E-02

    ------------------------------------------------
       NWT REQUIRED            3 OUTER ITERATIONS 
       AND A TOTAL OF          5 INNER ITERATIONS.
    ------------------------------------------------

 NO OUTPUT CONTROL FOR STRESS PERIOD    4   TIME STEP    3
 ..........LAKE  1 IS DRY..........
 
 SOLVING FOR HEAD 
                                                   Max.-Head-Change                         Max.-Flux-Residual
  Residual-Control   Outer-Iter.   Inner-Iter.     Column Row Layer    Maximum-Head-Change  Column Row Layer    Maximum-Flux-Residual          L2-NORM 
          0                 1           2             6    3     2       0.1622601673E+00       6    3    2         0.2197513234E+01      0.3973145617E+01
          0                 2           2             6    3     2       0.1067769310E-01       6    3    2         0.1453362622E+00      0.1958098291E+00
          0                 3           1             6    3     2       0.6970064915E-03       6    3    2         0.9495139527E-02      0.1028316545E-01

    ------------------------------------------------
       NWT REQUIRED            3 OUTER ITERATIONS 
       AND A TOTAL OF          5 INNER ITERATIONS.
    ------------------------------------------------

 NO OUTPUT CONTROL FOR STRESS PERIOD    4   TIME STEP    4
 ..........LAKE  1 IS DRY..........
 
 SOLVING FOR HEAD 
                                                   Max.-Head-Change                         Max.-Flux-Residual
  Residual-Control   Outer-Iter.   Inner-Iter.     Column Row Layer    Maximum-Head-Change  Column Row Layer    Maximum-Flux-Residual          L2-NORM 
          0                 1           2             6    3     2       0.1840857352E+00       6    3    2         0.2468281184E+01      0.4787926439E+01
          0                 2           2             6    3     2       0.1184763478E-01       6    3    2         0.1606641262E+00      0.2555310067E+00
          0                 3           1             6    3     2       0.7798132049E-03       6    3    2         0.1059507378E-01      0.1443078565E-01

    ------------------------------------------------
       NWT REQUIRED            3 OUTER ITERATIONS 
       AND A TOTAL OF          5 INNER ITERATIONS.
    ------------------------------------------------

 OUTPUT CONTROL FOR STRESS PERIOD    4   TIME STEP    5
    PRINT BUDGET
    SAVE BUDGET

            WELLS   PERIOD    4   STEP   5
 WELL      1   LAYER   2   ROW     6   COL     4   RATE    -1.00000    
 WELL      2   LAYER   2   ROW     6   COL     5   RATE    -1.00000    
 WELL      3   LAYER   2   ROW     7   COL     4   RATE    -1.00000    
 WELL      4   LAYER   2   ROW     7   COL     5   RATE    -1.00000    
 WELL      5   LAYER   2   ROW     8   COL     4   RATE    -1.00000    
 WELL      6   LAYER   2   ROW     8   COL     5   RATE    -1.00000    
 WELL      7   LAYER   2   ROW     9   COL     4   RATE    -1.00000    
 WELL      8   LAYER   2   ROW     9   COL     5   RATE    -1.00000    
 WELL      9   LAYER   2   ROW    10   COL     4   RATE    -1.00000    
 WELL     10   LAYER   2   ROW    10   COL     5   RATE    -1.00000    

  HEAD DEP BOUNDS   PERIOD    4   STEP     5
 BOUNDARY      1   LAYER   2   ROW    13   COL     1   RATE   -0.291889    
 BOUNDARY      2   LAYER   2   ROW    14   COL     9   RATE    0.214573    



 STREAM LISTING     PERIOD      4   STEP        5

 LAYER ROW COL. STREAM  RCH.  FLOW INTO     FLOW TO   FLOW OUT OF   OVRLND.     DIRECT     STREAM       STREAM     STREAM     STREAM   STREAMBED  STREAMBED
                SEG.NO.  NO.  STRM. RCH.    AQUIFER    STRM. RCH.    RUNOFF     PRECIP       ET          HEAD       DEPTH      WIDTH   CONDCTNC.   GRADIENT

   2    1    1     1     1    2.4000E+01  1.9380E+00   2.2062E+01  0.000E+00  0.000E+00  0.000E+00  1.09420E+03  1.150E+00  1.266E+01  5.698E-01  1.134E+00
   2    2    2     1     2    2.2062E+01  3.4701E+00   1.8592E+01  0.000E+00  0.000E+00  0.000E+00  1.08916E+03  1.106E+00  1.207E+01  8.452E-01  1.369E+00
   2    3    3     1     3    1.8592E+01  2.7105E+00   1.5881E+01  0.000E+00  0.000E+00  0.000E+00  1.08347E+03  1.054E+00  1.114E+01  6.687E-01  1.351E+00
   2    3    4     1     4    1.5881E+01  2.2923E+00   1.3589E+01  0.000E+00  0.000E+00  0.000E+00  1.07841E+03  1.007E+00  1.031E+01  5.721E-01  1.336E+00
   2    4    5     2     1    3.5891E+00  2.5654E+00   1.0236E+00  0.000E+00  0.000E+00  0.000E+00  1.07222E+03  2.890E-01  1.200E+01  7.800E-01  1.096E+00
   2    5    6     2     2    1.0236E+00  1.0236E+00   0.0000E+00  0.000E+00  0.000E+00  0.000E+00  1.06655E+03  3.994E-02  1.200E+01  6.000E-01  1.013E+00
   2    6    6     2     3    0.0000E+00  0.0000E+00   0.0000E+00  0.000E+00  0.000E+00  0.000E+00  1.06179E+03  0.000E+00  1.200E+01  6.000E-01  1.000E+00
   2    7    6     2     4    0.0000E+00  0.0000E+00   0.0000E+00  0.000E+00  0.000E+00  0.000E+00  1.05708E+03  0.000E+00  1.200E+01  6.000E-01  1.000E+00
   2    8    6     2     5    0.0000E+00  0.0000E+00   0.0000E+00  0.000E+00  0.000E+00  0.000E+00  1.05236E+03  0.000E+00  1.200E+01  6.000E-01  1.000E+00
   2    3    5     3     1    1.0000E+01  2.8252E+00   7.1748E+00  0.000E+00  0.000E+00  0.000E+00  1.07555E+03  1.909E+00  9.636E+00  7.227E-01  1.955E+00
   2    3    6     3     2    7.1748E+00  2.4905E+00   4.6843E+00  0.000E+00  0.000E+00  0.000E+00  1.07264E+03  1.727E+00  8.909E+00  6.682E-01  1.864E+00
   2    3    7     3     3    4.6843E+00  1.9718E+00   2.7125E+00  0.000E+00  0.000E+00  0.000E+00  1.06987E+03  1.555E+00  8.218E+00  5.547E-01  1.777E+00
   2    4    8     3     4    2.7125E+00  2.2567E+00   4.5579E-01  0.000E+00  0.000E+00  0.000E+00  1.06682E+03  1.364E+00  7.455E+00  6.709E-01  1.682E+00
   2    5    8     3     5    4.5579E-01  4.5579E-01   0.0000E+00  0.000E+00  0.000E+00  0.000E+00  1.06362E+03  0.000E+00  6.655E+00  4.991E-01  1.582E+00
   2    6    8     3     6    0.0000E+00  0.0000E+00   0.0000E+00  0.000E+00  0.000E+00  0.000E+00  1.06055E+03  0.000E+00  6.145E+00  1.844E-01  1.000E+00
   2    5   10     4     1    1.0000E+01  9.0525E-01   9.0947E+00  0.000E+00  0.000E+00  0.000E+00  1.07835E+03  6.210E-01  1.000E+01  2.500E-01  1.207E+00
   2    5    9     4     2    9.0947E+00  1.7835E+00   7.3113E+00  0.000E+00  0.000E+00  0.000E+00  1.07148E+03  5.670E-01  1.000E+01  5.000E-01  1.189E+00
   2    6    8     4     3    7.3113E+00  1.2257E+00   6.0855E+00  0.000E+00  0.000E+00  0.000E+00  1.06368E+03  5.021E-01  1.000E+01  3.500E-01  1.167E+00
   2    6    8     5     1    6.0855E+00  1.4716E+00   4.6139E+00  0.000E+00  0.000E+00  0.000E+00  1.05854E+03  5.396E-01  1.039E+01  4.158E-01  1.180E+00
   2    7    7     5     2    4.6139E+00  1.4897E+00   3.1242E+00  0.000E+00  0.000E+00  0.000E+00  1.05398E+03  4.817E-01  8.557E+00  4.279E-01  1.161E+00
   2    8    7     5     3    3.1242E+00  8.2855E-01   2.2957E+00  0.000E+00  0.000E+00  0.000E+00  1.04968E+03  4.253E-01  6.911E+00  2.419E-01  1.142E+00
   2    8    6     5     4    2.2957E+00  4.9455E-01   1.8011E+00  0.000E+00  0.000E+00  0.000E+00  1.04664E+03  3.856E-01  5.843E+00  1.461E-01  1.129E+00
   2    9    6     6     1    1.8011E+00  1.8011E+00   0.0000E+00  0.000E+00  0.000E+00  0.000E+00  1.04278E+03  5.669E-02  1.200E+01  6.000E-01  1.019E+00
   2   10    7     6     2    0.0000E+00  0.0000E+00   0.0000E+00  0.000E+00  0.000E+00  0.000E+00  1.03818E+03  0.000E+00  1.200E+01  6.000E-01  1.000E+00
   2   11    7     6     3    0.0000E+00  0.0000E+00   0.0000E+00  0.000E+00  0.000E+00  0.000E+00  1.03364E+03  0.000E+00  1.200E+01  6.000E-01  1.000E+00
   2   12    7     6     4    0.0000E+00  0.0000E+00   0.0000E+00  0.000E+00  0.000E+00  0.000E+00  1.02909E+03  0.000E+00  1.200E+01  6.000E-01  5.361E-01
   2   13    7     6     5    0.0000E+00 -7.5170E-01   7.5170E-01  0.000E+00  0.000E+00  0.000E+00  1.02601E+03  9.840E-02  1.200E+01  2.400E-01 -1.044E+00
   2   14    9     7     1    1.5000E+02  2.8572E+00   1.4714E+02  0.000E+00  0.000E+00  0.000E+00  1.03986E+03  2.284E+00  5.528E+01  5.591E+00  1.703E-01
   2   13    8     7     2    1.4714E+02  3.9051E+00   1.4324E+02  0.000E+00  0.000E+00  0.000E+00  1.03477E+03  2.266E+00  5.520E+01  6.140E+00  2.120E-01
   2   13    7     7     3    1.4324E+02  2.9369E+00   1.4030E+02  0.000E+00  0.000E+00  0.000E+00  1.02967E+03  2.247E+00  5.511E+01  5.573E+00  1.757E-01
   2   13    6     8     1    1.4105E+02  1.0517E+00   1.4000E+02  0.000E+00  0.000E+00  0.000E+00  1.02462E+03  2.749E+00  3.986E+01  4.062E+00  8.631E-02
   2   13    5     8     2    1.4000E+02 -2.2383E+00   1.4224E+02  0.000E+00  0.000E+00  0.000E+00  1.01838E+03  2.753E+00  3.992E+01  4.068E+00 -1.834E-01
   2   13    4     8     3    1.4224E+02 -5.3087E+00   1.4755E+02  0.000E+00  0.000E+00  0.000E+00  1.01216E+03  2.780E+00  4.032E+01  4.108E+00 -4.307E-01
   2   13    3     8     4    1.4755E+02 -6.0471E+00   1.5359E+02  0.000E+00  0.000E+00  0.000E+00  1.00595E+03  2.821E+00  4.090E+01  4.168E+00 -4.836E-01
   2   13    2     8     5    1.5359E+02 -3.5202E+00   1.5712E+02  0.000E+00  0.000E+00  0.000E+00  9.99729E+02  2.854E+00  4.138E+01  4.217E+00 -2.782E-01
   2   13    1     8     6    1.5712E+02 -2.3749E+00   1.5949E+02  0.000E+00  0.000E+00  0.000E+00  9.94749E+02  2.874E+00  4.168E+01  2.548E+00 -3.107E-01
   2    4    5     9     1    0.0000E+00  0.0000E+00   0.0000E+00  0.000E+00  0.000E+00  0.000E+00  1.06000E+03  0.000E+00  2.000E+01  2.000E-03  1.000E+00
   2    4    5    10     1    0.0000E+00  0.0000E+00   0.0000E+00  0.000E+00  0.000E+00  0.000E+00  1.08000E+03  0.000E+00  2.000E+01  2.000E-03  1.000E+00



 ..........LAKE  1 IS DRY..........

     SECTIONS OF THE LAKE BOTTOM HAVE BECOME DRY.  THE DRYSECTIONS
     LIE ABOVE THE FOLLOWING  1 AQUIFER CELLS (LAYER,ROW,COLUMN):
     (  2,  4,  5)  (

 PERIOD     4     TIME STEP     5     TIME STEP LENGTH  1.7520E+05
 PERIOD TIME  8.7600E+05     TOTAL SIMULATION TIME  8.7600E+06


                 HYDROLOGIC BUDGET SUMMARIES FOR SIMULATED LAKES
     (ALL FLUID FLUXES ARE VOLUMES ADDED TO THE LAKE DURING PRESENT TIME STEP)
     ----------------------------------------------------------------------------------------
 LAKE    STAGE         VOLUME     VOL. CHANGE      PRECIP     EVAPORATION    SPECIFIED RUNOFF     COMPUTED RUNOFF    TOTAL RUNOFF
   1  1.074500E+03  0.000000E+00  0.000000E+00  0.000000E+00  0.000000E+00   0.000000E+00          0.000000E+00      0.000000E+00

            GROUND WATER            SURFACE WATER        WATER          UZF INFIL.
 LAKE    INFLOW     OUTFLOW      INFLOW     OUTFLOW       USE        FROM LAKE
   1  0.0000E+00  0.0000E+00  0.0000E+00  0.0000E+00  0.0000E+00       0.0000E+00

      CONNECTED LAKE   TIME-STEP         STAGE-CHANGE          PERCENT
 LAKE    INFLUX      SURFACE AREA   TIME STEP  CUMULATIVE    DISCREPANCY
   1   0.0000E+00     0.0000E+00   0.0000E+00  0.0000E+00       0.000
 --------------------------------------------------------------------------------



            CUMULATIVE HYDROLOGIC BUDGET SUMMARIES FOR SIMULATED LAKES
     (ALL FLUID FLUXES ARE SUMS OF VOLUMES ADDED TO THE LAKE SINCE INITIAL TIME)
     ---------------------------------------------------------------------------
 LAKE       PRECIP       EVAP     SPECIFIED RUNOFF   COMPUTED RUNOFF   TOTAL RUNOFF
   1     0.0000E+00  0.0000E+00       0.0000E+00       0.0000E+00       0.0000E+00

            GROUND WATER            SURFACE WATER       UZF INFIL.
 LAKE    INFLOW     OUTFLOW      INFLOW     OUTFLOW     FROM LAKE
   1  0.0000E+00  0.0000E+00  0.0000E+00  0.0000E+00    0.0000E+00

         WATER    CONNECTED LAKE   CHANGE       PERCENT
 LAKE     USE         INFLUX       IN VOL.    DISCREPANCY
   1   0.0000E+00   0.0000E+00   0.0000E+00      0.000
 --------------------------------------------------------------------------------

 UBDSV3 SAVING "           GW ET" ON UNIT  61 AT TIME STEP     5, STRESS PERIOD   4
 UBDSV3 SAVING "    UZF RECHARGE" ON UNIT  61 AT TIME STEP     5, STRESS PERIOD   4
 UBDSV3 SAVING " SURFACE LEAKAGE" ON UNIT  61 AT TIME STEP     5, STRESS PERIOD   4
 UBDSV3 SAVING "       HORT+DUNN" ON UNIT  61 AT TIME STEP     5, STRESS PERIOD   4
 UBDSV3 SAVING "  STORAGE CHANGE" ON UNIT  61 AT TIME STEP     5, STRESS PERIOD   4


UNSATURATED ZONE PACKAGE VOLUMETRIC BUDGET FOR  TIME STEP     5 STRESS PERIOD    4
  ------------------------------------------------------------------------------



     CUMULATIVE VOLUMES      L**3       RATES FOR THIS TIME STEP      L**3/T
     ------------------                 ------------------------

           IN:                                      IN:
           ---                                      ---
        INFILTRATION =   549983460.0000          INFILTRATION =         169.0000

          OUT:                                     OUT:
          ----                                     ----
              UZF ET =   578047537.5262                UZF ET =          65.5411
        UZF RECHARGE =   202338490.0231          UZF RECHARGE =          29.5077

            IN - OUT =  -230402567.5494              IN - OUT =          73.9513

          STORAGE:                                 STORAGE:
          --------                                 --------
      STORAGE CHANGE =  -230305407.0839        STORAGE CHANGE =          73.9728

 PERCENT DISCREPANCY IS DIFFERENCE BETWEEN IN-OUT MINUS CHANGE IN STORAGE
 DIVIDED BY THE AVERAGE OF IN AND OUT TIMES 100

 PERCENT DISCREPANCY =          -0.00     PERCENT DISCREPANCY =          -0.01






1
  VOLUMETRIC BUDGET FOR ENTIRE MODEL AT END OF TIME STEP    5, STRESS PERIOD   4
  ------------------------------------------------------------------------------

     CUMULATIVE VOLUMES      L**3       RATES FOR THIS TIME STEP      L**3/T
     ------------------                 ------------------------

           IN:                                      IN:
           ---                                      ---
             STORAGE =    10167526.0000               STORAGE =           0.3187
       CONSTANT HEAD =           0.0000         CONSTANT HEAD =           0.0000
               WELLS =           0.0000                 WELLS =           0.0000
     HEAD DEP BOUNDS =     1883145.1250       HEAD DEP BOUNDS =           0.2146
      STREAM LEAKAGE =   412921920.0000        STREAM LEAKAGE =          44.7508
       LAKE  SEEPAGE =           0.0000         LAKE  SEEPAGE =           0.0000
        UZF RECHARGE =   202338480.0000          UZF RECHARGE =          29.5077
               GW ET =           0.0000                 GW ET =           0.0000
     SURFACE LEAKAGE =           0.0000       SURFACE LEAKAGE =           0.0000

            TOTAL IN =   627311040.0000              TOTAL IN =          74.7918

          OUT:                                     OUT:
          ----                                     ----
             STORAGE =   214538496.0000               STORAGE =          31.5291
       CONSTANT HEAD =           0.0000         CONSTANT HEAD =           0.0000
               WELLS =   140160000.0000                 WELLS =          10.0000
     HEAD DEP BOUNDS =     2527543.5000       HEAD DEP BOUNDS =           0.2919
      STREAM LEAKAGE =   160995040.0000        STREAM LEAKAGE =          20.2409
       LAKE  SEEPAGE =           0.0000         LAKE  SEEPAGE =           0.0000
        UZF RECHARGE =           0.0000          UZF RECHARGE =           0.0000
               GW ET =   109083144.0000                 GW ET =          12.7284
     SURFACE LEAKAGE =           0.0000       SURFACE LEAKAGE =           0.0000

           TOTAL OUT =   627304256.0000             TOTAL OUT =          74.7903

            IN - OUT =        6784.0000              IN - OUT =       1.4496E-03

 PERCENT DISCREPANCY =           0.00     PERCENT DISCREPANCY =           0.00






         TIME SUMMARY AT END OF TIME STEP    5 IN STRESS PERIOD    4
                    SECONDS     MINUTES      HOURS       DAYS        YEARS
                    -----------------------------------------------------------
   TIME STEP LENGTH 1.75200E+05  2920.0      48.667      2.0278     5.55175E-03
 STRESS PERIOD TIME 8.76000E+05  14600.      243.33      10.139     2.77588E-02
         TOTAL TIME 8.76000E+06 1.46000E+05  2433.3      101.39     0.27759    
1
 
 SOLVING FOR HEAD 
                                                   Max.-Head-Change                         Max.-Flux-Residual
  Residual-Control   Outer-Iter.   Inner-Iter.     Column Row Layer    Maximum-Head-Change  Column Row Layer    Maximum-Flux-Residual          L2-NORM 
          0                 1           2             6    3     2       0.1769330599E+00       6    3    2         0.2386523431E+01      0.4658609463E+01
          0                 2           2             6    3     2       0.1174721965E-01       6    3    2         0.1594450312E+00      0.2529907247E+00
          0                 3           1             6    3     2       0.7721675812E-03       6    3    2         0.1049219714E-01      0.1428439280E-01

    ------------------------------------------------
       NWT REQUIRED            3 OUTER ITERATIONS 
       AND A TOTAL OF          5 INNER ITERATIONS.
    ------------------------------------------------

 NO OUTPUT CONTROL FOR STRESS PERIOD    4   TIME STEP    6
 ..........LAKE  1 IS DRY..........
 
 SOLVING FOR HEAD 
                                                   Max.-Head-Change                         Max.-Flux-Residual
  Residual-Control   Outer-Iter.   Inner-Iter.     Column Row Layer    Maximum-Head-Change  Column Row Layer    Maximum-Flux-Residual          L2-NORM 
          0                 1           2             6    3     2       0.1704214738E+00       6    3    2         0.2298262723E+01      0.4521311205E+01
          0                 2           2             6    3     2       0.1131313267E-01       6    3    2         0.1536224822E+00      0.2464815709E+00
          0                 3           1             6    3     2       0.7430847716E-03       6    3    2         0.1009918037E-01      0.1376048920E-01

    ------------------------------------------------
       NWT REQUIRED            3 OUTER ITERATIONS 
       AND A TOTAL OF          5 INNER ITERATIONS.
    ------------------------------------------------

 NO OUTPUT CONTROL FOR STRESS PERIOD    4   TIME STEP    7
 ..........LAKE  1 IS DRY..........
 
 SOLVING FOR HEAD 
                                                   Max.-Head-Change                         Max.-Flux-Residual
  Residual-Control   Outer-Iter.   Inner-Iter.     Column Row Layer    Maximum-Head-Change  Column Row Layer    Maximum-Flux-Residual          L2-NORM 
          0                 1           2             6    3     2       0.1641943467E+00       6    3    2         0.2213471086E+01      0.4438370327E+01
          0                 2           2             6    3     2       0.1090100003E-01       6    3    2         0.1480930105E+00      0.2416695024E+00
          0                 3           1             6    3     2       0.7155087075E-03       6    3    2         0.9726234438E-02      0.1327605079E-01

    ------------------------------------------------
       NWT REQUIRED            3 OUTER ITERATIONS 
       AND A TOTAL OF          5 INNER ITERATIONS.
    ------------------------------------------------

 NO OUTPUT CONTROL FOR STRESS PERIOD    4   TIME STEP    8
 ..........LAKE  1 IS DRY..........
 
 SOLVING FOR HEAD 
                                                   Max.-Head-Change                         Max.-Flux-Residual
  Residual-Control   Outer-Iter.   Inner-Iter.     Column Row Layer    Maximum-Head-Change  Column Row Layer    Maximum-Flux-Residual          L2-NORM 
          0                 1           2             6    3     2       0.1582416500E+00       6    3    2         0.2132437066E+01      0.4301018690E+01
          0                 2           2             6    3     2       0.1050669162E-01       6    3    2         0.1428041520E+00      0.2347145135E+00
          0                 3           1             6    3     2       0.6891560903E-03       6    3    2         0.9369379158E-02      0.1281216992E-01

    ------------------------------------------------
       NWT REQUIRED            3 OUTER ITERATIONS 
       AND A TOTAL OF          5 INNER ITERATIONS.
    ------------------------------------------------

 NO OUTPUT CONTROL FOR STRESS PERIOD    4   TIME STEP    9
 ..........LAKE  1 IS DRY..........
 
 SOLVING FOR HEAD 
                                                   Max.-Head-Change                         Max.-Flux-Residual
  Residual-Control   Outer-Iter.   Inner-Iter.     Column Row Layer    Maximum-Head-Change  Column Row Layer    Maximum-Flux-Residual          L2-NORM 
          0                 1           2             6    3     2       0.1528027903E+00       6    3    2         0.2054973798E+01      0.4236445316E+01
          0                 2           2             6    3     2       0.1018582109E-01       6    3    2         0.1383164178E+00      0.2295005577E+00
          0                 3           1             6    3     2       0.6690890753E-03       6    3    2         0.9095683108E-02      0.1245886444E-01

    ------------------------------------------------
       NWT REQUIRED            3 OUTER ITERATIONS 
       AND A TOTAL OF          5 INNER ITERATIONS.
    ------------------------------------------------

 OUTPUT CONTROL FOR STRESS PERIOD    4   TIME STEP   10
    PRINT BUDGET
    SAVE BUDGET

            WELLS   PERIOD    4   STEP  10
 WELL      1   LAYER   2   ROW     6   COL     4   RATE    -1.00000    
 WELL      2   LAYER   2   ROW     6   COL     5   RATE    -1.00000    
 WELL      3   LAYER   2   ROW     7   COL     4   RATE    -1.00000    
 WELL      4   LAYER   2   ROW     7   COL     5   RATE    -1.00000    
 WELL      5   LAYER   2   ROW     8   COL     4   RATE    -1.00000    
 WELL      6   LAYER   2   ROW     8   COL     5   RATE    -1.00000    
 WELL      7   LAYER   2   ROW     9   COL     4   RATE    -1.00000    
 WELL      8   LAYER   2   ROW     9   COL     5   RATE    -1.00000    
 WELL      9   LAYER   2   ROW    10   COL     4   RATE    -1.00000    
 WELL     10   LAYER   2   ROW    10   COL     5   RATE    -1.00000    

  HEAD DEP BOUNDS   PERIOD    4   STEP    10
 BOUNDARY      1   LAYER   2   ROW    13   COL     1   RATE   -0.293002    
 BOUNDARY      2   LAYER   2   ROW    14   COL     9   RATE    0.214488    



 STREAM LISTING     PERIOD      4   STEP       10

 LAYER ROW COL. STREAM  RCH.  FLOW INTO     FLOW TO   FLOW OUT OF   OVRLND.     DIRECT     STREAM       STREAM     STREAM     STREAM   STREAMBED  STREAMBED
                SEG.NO.  NO.  STRM. RCH.    AQUIFER    STRM. RCH.    RUNOFF     PRECIP       ET          HEAD       DEPTH      WIDTH   CONDCTNC.   GRADIENT

   2    1    1     1     1    2.5000E+01  1.9805E+00   2.3019E+01  0.000E+00  0.000E+00  0.000E+00  1.09421E+03  1.165E+00  1.286E+01  5.788E-01  1.140E+00
   2    2    2     1     2    2.3019E+01  3.5424E+00   1.9477E+01  0.000E+00  0.000E+00  0.000E+00  1.08918E+03  1.121E+00  1.228E+01  8.596E-01  1.374E+00
   2    3    3     1     3    1.9477E+01  2.7861E+00   1.6691E+01  0.000E+00  0.000E+00  0.000E+00  1.08349E+03  1.068E+00  1.141E+01  6.848E-01  1.356E+00
   2    3    4     1     4    1.6691E+01  2.3604E+00   1.4331E+01  0.000E+00  0.000E+00  0.000E+00  1.07843E+03  1.022E+00  1.057E+01  5.869E-01  1.341E+00
   2    4    5     2     1    4.3306E+00  2.6054E+00   1.7251E+00  0.000E+00  0.000E+00  0.000E+00  1.07227E+03  3.403E-01  1.200E+01  7.800E-01  1.113E+00
   2    5    6     2     2    1.7251E+00  1.7251E+00   0.0000E+00  0.000E+00  0.000E+00  0.000E+00  1.06656E+03  5.463E-02  1.200E+01  6.000E-01  1.018E+00
   2    6    6     2     3    0.0000E+00  0.0000E+00   0.0000E+00  0.000E+00  0.000E+00  0.000E+00  1.06179E+03  0.000E+00  1.200E+01  6.000E-01  1.000E+00
   2    7    6     2     4    0.0000E+00  0.0000E+00   0.0000E+00  0.000E+00  0.000E+00  0.000E+00  1.05708E+03  0.000E+00  1.200E+01  6.000E-01  1.000E+00
   2    8    6     2     5    0.0000E+00  0.0000E+00   0.0000E+00  0.000E+00  0.000E+00  0.000E+00  1.05236E+03  0.000E+00  1.200E+01  6.000E-01  1.000E+00
   2    3    5     3     1    1.0000E+01  2.8252E+00   7.1748E+00  0.000E+00  0.000E+00  0.000E+00  1.07555E+03  1.909E+00  9.636E+00  7.227E-01  1.955E+00
   2    3    6     3     2    7.1748E+00  2.4905E+00   4.6843E+00  0.000E+00  0.000E+00  0.000E+00  1.07264E+03  1.727E+00  8.909E+00  6.682E-01  1.864E+00
   2    3    7     3     3    4.6843E+00  1.9718E+00   2.7125E+00  0.000E+00  0.000E+00  0.000E+00  1.06987E+03  1.555E+00  8.218E+00  5.547E-01  1.777E+00
   2    4    8     3     4    2.7125E+00  2.2567E+00   4.5579E-01  0.000E+00  0.000E+00  0.000E+00  1.06682E+03  1.364E+00  7.455E+00  6.709E-01  1.682E+00
   2    5    8     3     5    4.5579E-01  4.5579E-01   0.0000E+00  0.000E+00  0.000E+00  0.000E+00  1.06362E+03  0.000E+00  6.655E+00  4.991E-01  1.582E+00
   2    6    8     3     6    0.0000E+00  0.0000E+00   0.0000E+00  0.000E+00  0.000E+00  0.000E+00  1.06055E+03  0.000E+00  6.145E+00  1.844E-01  1.000E+00
   2    5   10     4     1    1.0000E+01  9.0525E-01   9.0947E+00  0.000E+00  0.000E+00  0.000E+00  1.07835E+03  6.210E-01  1.000E+01  2.500E-01  1.207E+00
   2    5    9     4     2    9.0947E+00  1.7835E+00   7.3113E+00  0.000E+00  0.000E+00  0.000E+00  1.07148E+03  5.670E-01  1.000E+01  5.000E-01  1.189E+00
   2    6    8     4     3    7.3113E+00  1.2257E+00   6.0855E+00  0.000E+00  0.000E+00  0.000E+00  1.06368E+03  5.021E-01  1.000E+01  3.500E-01  1.167E+00
   2    6    8     5     1    6.0855E+00  1.4716E+00   4.6139E+00  0.000E+00  0.000E+00  0.000E+00  1.05854E+03  5.396E-01  1.039E+01  4.158E-01  1.180E+00
   2    7    7     5     2    4.6139E+00  1.4897E+00   3.1242E+00  0.000E+00  0.000E+00  0.000E+00  1.05398E+03  4.817E-01  8.557E+00  4.279E-01  1.161E+00
   2    8    7     5     3    3.1242E+00  8.2855E-01   2.2957E+00  0.000E+00  0.000E+00  0.000E+00  1.04968E+03  4.253E-01  6.911E+00  2.419E-01  1.142E+00
   2    8    6     5     4    2.2957E+00  4.9455E-01   1.8011E+00  0.000E+00  0.000E+00  0.000E+00  1.04664E+03  3.856E-01  5.843E+00  1.461E-01  1.129E+00
   2    9    6     6     1    1.8011E+00  1.8011E+00   0.0000E+00  0.000E+00  0.000E+00  0.000E+00  1.04278E+03  5.669E-02  1.200E+01  6.000E-01  1.019E+00
   2   10    7     6     2    0.0000E+00  0.0000E+00   0.0000E+00  0.000E+00  0.000E+00  0.000E+00  1.03818E+03  0.000E+00  1.200E+01  6.000E-01  1.000E+00
   2   11    7     6     3    0.0000E+00  0.0000E+00   0.0000E+00  0.000E+00  0.000E+00  0.000E+00  1.03364E+03  0.000E+00  1.200E+01  6.000E-01  1.000E+00
   2   12    7     6     4    0.0000E+00  0.0000E+00   0.0000E+00  0.000E+00  0.000E+00  0.000E+00  1.02909E+03  0.000E+00  1.200E+01  6.000E-01  5.293E-01
   2   13    7     6     5    0.0000E+00 -7.5955E-01   7.5955E-01  0.000E+00  0.000E+00  0.000E+00  1.02601E+03  9.901E-02  1.200E+01  2.400E-01 -1.055E+00
   2   14    9     7     1    1.5000E+02  2.8448E+00   1.4716E+02  0.000E+00  0.000E+00  0.000E+00  1.03986E+03  2.284E+00  5.528E+01  5.591E+00  1.696E-01
   2   13    8     7     2    1.4716E+02  3.8735E+00   1.4328E+02  0.000E+00  0.000E+00  0.000E+00  1.03477E+03  2.266E+00  5.520E+01  6.140E+00  2.103E-01
   2   13    7     7     3    1.4328E+02  2.7553E+00   1.4053E+02  0.000E+00  0.000E+00  0.000E+00  1.02967E+03  2.248E+00  5.512E+01  5.573E+00  1.648E-01
   2   13    6     8     1    1.4129E+02  8.8558E-01   1.4040E+02  0.000E+00  0.000E+00  0.000E+00  1.02463E+03  2.751E+00  3.989E+01  4.065E+00  7.262E-02
   2   13    5     8     2    1.4040E+02 -2.3659E+00   1.4277E+02  0.000E+00  0.000E+00  0.000E+00  1.01838E+03  2.756E+00  3.997E+01  4.073E+00 -1.936E-01
   2   13    4     8     3    1.4277E+02 -5.4276E+00   1.4819E+02  0.000E+00  0.000E+00  0.000E+00  1.01216E+03  2.785E+00  4.038E+01  4.115E+00 -4.397E-01
   2   13    3     8     4    1.4819E+02 -6.1515E+00   1.5435E+02  0.000E+00  0.000E+00  0.000E+00  1.00595E+03  2.826E+00  4.097E+01  4.175E+00 -4.911E-01
   2   13    2     8     5    1.5435E+02 -3.5667E+00   1.5791E+02  0.000E+00  0.000E+00  0.000E+00  9.99734E+02  2.859E+00  4.146E+01  4.225E+00 -2.814E-01
   2   13    1     8     6    1.5791E+02 -2.4399E+00   1.6035E+02  0.000E+00  0.000E+00  0.000E+00  9.94755E+02  2.880E+00  4.176E+01  2.553E+00 -3.185E-01
   2    4    5     9     1    0.0000E+00  0.0000E+00   0.0000E+00  0.000E+00  0.000E+00  0.000E+00  1.06000E+03  0.000E+00  2.000E+01  2.000E-03  1.000E+00
   2    4    5    10     1    0.0000E+00  0.0000E+00   0.0000E+00  0.000E+00  0.000E+00  0.000E+00  1.08000E+03  0.000E+00  2.000E+01  2.000E-03  1.000E+00



 ..........LAKE  1 IS DRY..........

     SECTIONS OF THE LAKE BOTTOM HAVE BECOME DRY.  THE DRYSECTIONS
     LIE ABOVE THE FOLLOWING  1 AQUIFER CELLS (LAYER,ROW,COLUMN):
     (  2,  4,  5)  (

 PERIOD     4     TIME STEP    10     TIME STEP LENGTH  1.7520E+05
 PERIOD TIME  1.7520E+06     TOTAL SIMULATION TIME  9.6360E+06


                 HYDROLOGIC BUDGET SUMMARIES FOR SIMULATED LAKES
     (ALL FLUID FLUXES ARE VOLUMES ADDED TO THE LAKE DURING PRESENT TIME STEP)
     ----------------------------------------------------------------------------------------
 LAKE    STAGE         VOLUME     VOL. CHANGE      PRECIP     EVAPORATION    SPECIFIED RUNOFF     COMPUTED RUNOFF    TOTAL RUNOFF
   1  1.074500E+03  0.000000E+00  0.000000E+00  0.000000E+00  0.000000E+00   0.000000E+00          0.000000E+00      0.000000E+00

            GROUND WATER            SURFACE WATER        WATER          UZF INFIL.
 LAKE    INFLOW     OUTFLOW      INFLOW     OUTFLOW       USE        FROM LAKE
   1  0.0000E+00  0.0000E+00  0.0000E+00  0.0000E+00  0.0000E+00       0.0000E+00

      CONNECTED LAKE   TIME-STEP         STAGE-CHANGE          PERCENT
 LAKE    INFLUX      SURFACE AREA   TIME STEP  CUMULATIVE    DISCREPANCY
   1   0.0000E+00     0.0000E+00   0.0000E+00  0.0000E+00       0.000
 --------------------------------------------------------------------------------



            CUMULATIVE HYDROLOGIC BUDGET SUMMARIES FOR SIMULATED LAKES
     (ALL FLUID FLUXES ARE SUMS OF VOLUMES ADDED TO THE LAKE SINCE INITIAL TIME)
     ---------------------------------------------------------------------------
 LAKE       PRECIP       EVAP     SPECIFIED RUNOFF   COMPUTED RUNOFF   TOTAL RUNOFF
   1     0.0000E+00  0.0000E+00       0.0000E+00       0.0000E+00       0.0000E+00

            GROUND WATER            SURFACE WATER       UZF INFIL.
 LAKE    INFLOW     OUTFLOW      INFLOW     OUTFLOW     FROM LAKE
   1  0.0000E+00  0.0000E+00  0.0000E+00  0.0000E+00    0.0000E+00

         WATER    CONNECTED LAKE   CHANGE       PERCENT
 LAKE     USE         INFLUX       IN VOL.    DISCREPANCY
   1   0.0000E+00   0.0000E+00   0.0000E+00      0.000
 --------------------------------------------------------------------------------

 UBDSV3 SAVING "           GW ET" ON UNIT  61 AT TIME STEP    10, STRESS PERIOD   4
 UBDSV3 SAVING "    UZF RECHARGE" ON UNIT  61 AT TIME STEP    10, STRESS PERIOD   4
 UBDSV3 SAVING " SURFACE LEAKAGE" ON UNIT  61 AT TIME STEP    10, STRESS PERIOD   4
 UBDSV3 SAVING "       HORT+DUNN" ON UNIT  61 AT TIME STEP    10, STRESS PERIOD   4
 UBDSV3 SAVING "  STORAGE CHANGE" ON UNIT  61 AT TIME STEP    10, STRESS PERIOD   4


UNSATURATED ZONE PACKAGE VOLUMETRIC BUDGET FOR  TIME STEP    10 STRESS PERIOD    4
  ------------------------------------------------------------------------------



     CUMULATIVE VOLUMES      L**3       RATES FOR THIS TIME STEP      L**3/T
     ------------------                 ------------------------

           IN:                                      IN:
           ---                                      ---
        INFILTRATION =   698027460.0000          INFILTRATION =         169.0000

          OUT:                                     OUT:
          ----                                     ----
              UZF ET =   639186581.7040                UZF ET =          72.4702
        UZF RECHARGE =   227036180.3105          UZF RECHARGE =          27.8285

            IN - OUT =  -168195302.0145              IN - OUT =          68.7014

          STORAGE:                                 STORAGE:
          --------                                 --------
      STORAGE CHANGE =  -168078022.5278        STORAGE CHANGE =          68.7135

 PERCENT DISCREPANCY IS DIFFERENCE BETWEEN IN-OUT MINUS CHANGE IN STORAGE
 DIVIDED BY THE AVERAGE OF IN AND OUT TIMES 100

 PERCENT DISCREPANCY =          -0.00     PERCENT DISCREPANCY =          -0.01






1
  VOLUMETRIC BUDGET FOR ENTIRE MODEL AT END OF TIME STEP   10, STRESS PERIOD   4
  ------------------------------------------------------------------------------

     CUMULATIVE VOLUMES      L**3       RATES FOR THIS TIME STEP      L**3/T
     ------------------                 ------------------------

           IN:                                      IN:
           ---                                      ---
             STORAGE =    10377340.0000               STORAGE =           0.2115
       CONSTANT HEAD =           0.0000         CONSTANT HEAD =           0.0000
               WELLS =           0.0000                 WELLS =           0.0000
     HEAD DEP BOUNDS =     2071074.1250       HEAD DEP BOUNDS =           0.2145
      STREAM LEAKAGE =   452511936.0000        STREAM LEAKAGE =          45.3591
       LAKE  SEEPAGE =           0.0000         LAKE  SEEPAGE =           0.0000
        UZF RECHARGE =   227036176.0000          UZF RECHARGE =          27.8285
               GW ET =           0.0000                 GW ET =           0.0000
     SURFACE LEAKAGE =           0.0000       SURFACE LEAKAGE =           0.0000

            TOTAL IN =   691996544.0000              TOTAL IN =          73.6135

          OUT:                                     OUT:
          ----                                     ----
             STORAGE =   241102176.0000               STORAGE =          29.9893
       CONSTANT HEAD =           0.0000         CONSTANT HEAD =           0.0000
               WELLS =   148920000.0000                 WELLS =          10.0000
     HEAD DEP BOUNDS =     2783861.5000       HEAD DEP BOUNDS =           0.2930
      STREAM LEAKAGE =   178989184.0000        STREAM LEAKAGE =          20.7111
       LAKE  SEEPAGE =           0.0000         LAKE  SEEPAGE =           0.0000
        UZF RECHARGE =           0.0000          UZF RECHARGE =           0.0000
               GW ET =   120193328.0000                 GW ET =          12.6189
     SURFACE LEAKAGE =           0.0000       SURFACE LEAKAGE =           0.0000

           TOTAL OUT =   691988544.0000             TOTAL OUT =          73.6123

            IN - OUT =        8000.0000              IN - OUT =       1.1673E-03

 PERCENT DISCREPANCY =           0.00     PERCENT DISCREPANCY =           0.00






         TIME SUMMARY AT END OF TIME STEP   10 IN STRESS PERIOD    4
                    SECONDS     MINUTES      HOURS       DAYS        YEARS
                    -----------------------------------------------------------
   TIME STEP LENGTH 1.75200E+05  2920.0      48.667      2.0278     5.55175E-03
 STRESS PERIOD TIME 1.75200E+06  29200.      486.67      20.278     5.55175E-02
         TOTAL TIME 9.63600E+06 1.60600E+05  2676.7      111.53     0.30535    
1
 
 SOLVING FOR HEAD 
                                                   Max.-Head-Change                         Max.-Flux-Residual
  Residual-Control   Outer-Iter.   Inner-Iter.     Column Row Layer    Maximum-Head-Change  Column Row Layer    Maximum-Flux-Residual          L2-NORM 
          0                 1           2             6    3     2       0.1478540982E+00       6    3    2         0.1984730214E+01      0.4238640844E+01
          0                 2           2             6    3     2       0.9883066074E-02       6    3    2         0.1342093472E+00      0.2252267114E+00
          0                 3           1             6    3     2       0.6492585265E-03       6    3    2         0.8825986951E-02      0.1210438967E-01

    ------------------------------------------------
       NWT REQUIRED            3 OUTER ITERATIONS 
       AND A TOTAL OF          5 INNER ITERATIONS.
    ------------------------------------------------

 NO OUTPUT CONTROL FOR STRESS PERIOD    4   TIME STEP   11
 ..........LAKE  1 IS DRY..........
 
 SOLVING FOR HEAD 
                                                   Max.-Head-Change                         Max.-Flux-Residual
  Residual-Control   Outer-Iter.   Inner-Iter.     Column Row Layer    Maximum-Head-Change  Column Row Layer    Maximum-Flux-Residual          L2-NORM 
          0                 1           2             6    2     2       0.2138881468E+00       6    2    2         0.2789095885E+01      0.5562109453E+01
          0                 2           2             6    2     2       0.1415774097E-01       6    2    2         0.1845668161E+00      0.3399750327E+00
          0                 3           1             6    2     2       0.9377283070E-03       6    2    2         0.1222268344E-01      0.2084916715E-01

    ------------------------------------------------
       NWT REQUIRED            3 OUTER ITERATIONS 
       AND A TOTAL OF          5 INNER ITERATIONS.
    ------------------------------------------------

 NO OUTPUT CONTROL FOR STRESS PERIOD    4   TIME STEP   12
 ..........LAKE  1 IS DRY..........
 
 SOLVING FOR HEAD 
                                                   Max.-Head-Change                         Max.-Flux-Residual
  Residual-Control   Outer-Iter.   Inner-Iter.     Column Row Layer    Maximum-Head-Change  Column Row Layer    Maximum-Flux-Residual          L2-NORM 
          0                 1           2             6    2     2       0.2220862609E+00       6    2    2         0.2897406127E+01      0.5596134240E+01
          0                 2           2             6    2     2       0.1474485804E-01       6    2    2         0.1923213050E+00      0.3448886459E+00
          0                 3           1             6    2     2       0.1022071960E-02       6    2    2         0.1333386187E-01      0.2193089129E-01
          0                 4           1             6    2     2       0.7081086508E-04       6    2    2         0.9240007843E-03      0.1463093770E-02

    ------------------------------------------------
       NWT REQUIRED            4 OUTER ITERATIONS 
       AND A TOTAL OF          6 INNER ITERATIONS.
    ------------------------------------------------

 NO OUTPUT CONTROL FOR STRESS PERIOD    4   TIME STEP   13
 ..........LAKE  1 IS DRY..........
 
 SOLVING FOR HEAD 
                                                   Max.-Head-Change                         Max.-Flux-Residual
  Residual-Control   Outer-Iter.   Inner-Iter.     Column Row Layer    Maximum-Head-Change  Column Row Layer    Maximum-Flux-Residual          L2-NORM 
          0                 1           2             6    2     2       0.2208712043E+00       6    2    2         0.2881944947E+01      0.5655889743E+01
          0                 2           2             6    2     2       0.1526120555E-01       6    2    2         0.1991407720E+00      0.3523989966E+00
          0                 3           1             6    2     2       0.1008580472E-02       6    2    2         0.1315645024E-01      0.2187306191E-01
          0                 4           1             6    2     2       0.6669748434E-04       6    2    2         0.8699199671E-03      0.1406164967E-02

    ------------------------------------------------
       NWT REQUIRED            4 OUTER ITERATIONS 
       AND A TOTAL OF          6 INNER ITERATIONS.
    ------------------------------------------------

 NO OUTPUT CONTROL FOR STRESS PERIOD    4   TIME STEP   14
 ..........LAKE  1 IS DRY..........
 
 SOLVING FOR HEAD 
                                                   Max.-Head-Change                         Max.-Flux-Residual
  Residual-Control   Outer-Iter.   Inner-Iter.     Column Row Layer    Maximum-Head-Change  Column Row Layer    Maximum-Flux-Residual          L2-NORM 
          0                 1           2             6    2     2       0.2196212599E+00       6    2    2         0.2866018827E+01      0.5585549241E+01
          0                 2           2             6    2     2       0.1451443061E-01       6    2    2         0.1892962913E+00      0.3418665695E+00
          0                 3           1             6    2     2       0.9606957179E-03       6    2    2         0.1252266583E-01      0.2109096116E-01

    ------------------------------------------------
       NWT REQUIRED            3 OUTER ITERATIONS 
       AND A TOTAL OF          5 INNER ITERATIONS.
    ------------------------------------------------

 NO OUTPUT CONTROL FOR STRESS PERIOD    4   TIME STEP   15



 STREAM LISTING     PERIOD      4   STEP       15

 LAYER ROW COL. STREAM  RCH.  FLOW INTO     FLOW TO   FLOW OUT OF   OVRLND.     DIRECT     STREAM       STREAM     STREAM     STREAM   STREAMBED  STREAMBED
                SEG.NO.  NO.  STRM. RCH.    AQUIFER    STRM. RCH.    RUNOFF     PRECIP       ET          HEAD       DEPTH      WIDTH   CONDCTNC.   GRADIENT

   2    1    1     1     1    2.1000E+01  1.8258E+00   1.9174E+01  0.000E+00  0.000E+00  0.000E+00  1.09415E+03  1.102E+00  1.202E+01  5.409E-01  1.125E+00
   2    2    2     1     2    1.9174E+01  3.1977E+00   1.5976E+01  0.000E+00  0.000E+00  0.000E+00  1.08912E+03  1.060E+00  1.125E+01  7.877E-01  1.353E+00
   2    3    3     1     3    1.5976E+01  2.4784E+00   1.3498E+01  0.000E+00  0.000E+00  0.000E+00  1.08343E+03  1.007E+00  1.031E+01  6.185E-01  1.336E+00
   2    3    4     1     4    1.3498E+01  2.0834E+00   1.1415E+01  0.000E+00  0.000E+00  0.000E+00  1.07837E+03  9.591E-01  9.481E+00  5.262E-01  1.320E+00
   2    4    5     2     1    1.4147E+00  1.4147E+00   0.0000E+00  0.000E+00  0.000E+00  0.000E+00  1.07198E+03  4.850E-02  1.200E+01  7.800E-01  1.016E+00
   2    5    6     2     2    0.0000E+00  0.0000E+00   0.0000E+00  0.000E+00  0.000E+00  0.000E+00  1.06651E+03  0.000E+00  1.200E+01  6.000E-01  1.000E+00
   2    6    6     2     3    0.0000E+00  0.0000E+00   0.0000E+00  0.000E+00  0.000E+00  0.000E+00  1.06179E+03  0.000E+00  1.200E+01  6.000E-01  1.000E+00
   2    7    6     2     4    0.0000E+00  0.0000E+00   0.0000E+00  0.000E+00  0.000E+00  0.000E+00  1.05708E+03  0.000E+00  1.200E+01  6.000E-01  1.000E+00
   2    8    6     2     5    0.0000E+00  0.0000E+00   0.0000E+00  0.000E+00  0.000E+00  0.000E+00  1.05236E+03  0.000E+00  1.200E+01  6.000E-01  1.000E+00
   2    3    5     3     1    1.0000E+01  2.8252E+00   7.1748E+00  0.000E+00  0.000E+00  0.000E+00  1.07555E+03  1.909E+00  9.636E+00  7.227E-01  1.955E+00
   2    3    6     3     2    7.1748E+00  2.4905E+00   4.6843E+00  0.000E+00  0.000E+00  0.000E+00  1.07264E+03  1.727E+00  8.909E+00  6.682E-01  1.864E+00
   2    3    7     3     3    4.6843E+00  1.9718E+00   2.7125E+00  0.000E+00  0.000E+00  0.000E+00  1.06987E+03  1.555E+00  8.218E+00  5.547E-01  1.777E+00
   2    4    8     3     4    2.7125E+00  2.2567E+00   4.5579E-01  0.000E+00  0.000E+00  0.000E+00  1.06682E+03  1.364E+00  7.455E+00  6.709E-01  1.682E+00
   2    5    8     3     5    4.5579E-01  4.5579E-01   0.0000E+00  0.000E+00  0.000E+00  0.000E+00  1.06362E+03  0.000E+00  6.655E+00  4.991E-01  1.582E+00
   2    6    8     3     6    0.0000E+00  0.0000E+00   0.0000E+00  0.000E+00  0.000E+00  0.000E+00  1.06055E+03  0.000E+00  6.145E+00  1.844E-01  1.000E+00
   2    5   10     4     1    1.0000E+01  9.0525E-01   9.0947E+00  0.000E+00  0.000E+00  0.000E+00  1.07835E+03  6.210E-01  1.000E+01  2.500E-01  1.207E+00
   2    5    9     4     2    9.0947E+00  1.7835E+00   7.3113E+00  0.000E+00  0.000E+00  0.000E+00  1.07148E+03  5.670E-01  1.000E+01  5.000E-01  1.189E+00
   2    6    8     4     3    7.3113E+00  1.2257E+00   6.0855E+00  0.000E+00  0.000E+00  0.000E+00  1.06368E+03  5.021E-01  1.000E+01  3.500E-01  1.167E+00
   2    6    8     5     1    6.0855E+00  1.4716E+00   4.6139E+00  0.000E+00  0.000E+00  0.000E+00  1.05854E+03  5.396E-01  1.039E+01  4.158E-01  1.180E+00
   2    7    7     5     2    4.6139E+00  1.4897E+00   3.1242E+00  0.000E+00  0.000E+00  0.000E+00  1.05398E+03  4.817E-01  8.557E+00  4.279E-01  1.161E+00
   2    8    7     5     3    3.1242E+00  8.2855E-01   2.2957E+00  0.000E+00  0.000E+00  0.000E+00  1.04968E+03  4.253E-01  6.911E+00  2.419E-01  1.142E+00
   2    8    6     5     4    2.2957E+00  4.9455E-01   1.8011E+00  0.000E+00  0.000E+00  0.000E+00  1.04664E+03  3.856E-01  5.843E+00  1.461E-01  1.129E+00
   2    9    6     6     1    1.8011E+00  1.8011E+00   0.0000E+00  0.000E+00  0.000E+00  0.000E+00  1.04278E+03  5.669E-02  1.200E+01  6.000E-01  1.019E+00
   2   10    7     6     2    0.0000E+00  0.0000E+00   0.0000E+00  0.000E+00  0.000E+00  0.000E+00  1.03818E+03  0.000E+00  1.200E+01  6.000E-01  1.000E+00
   2   11    7     6     3    0.0000E+00  0.0000E+00   0.0000E+00  0.000E+00  0.000E+00  0.000E+00  1.03364E+03  0.000E+00  1.200E+01  6.000E-01  1.000E+00
   2   12    7     6     4    0.0000E+00  0.0000E+00   0.0000E+00  0.000E+00  0.000E+00  0.000E+00  1.02909E+03  0.000E+00  1.200E+01  6.000E-01  5.206E-01
   2   13    7     6     5    0.0000E+00 -7.6291E-01   7.6291E-01  0.000E+00  0.000E+00  0.000E+00  1.02601E+03  9.927E-02  1.200E+01  2.400E-01 -1.060E+00
   2   14    9     7     1    1.5000E+02  2.8206E+00   1.4718E+02  0.000E+00  0.000E+00  0.000E+00  1.03986E+03  2.284E+00  5.528E+01  5.591E+00  1.682E-01
   2   13    8     7     2    1.4718E+02  3.7893E+00   1.4339E+02  0.000E+00  0.000E+00  0.000E+00  1.03477E+03  2.266E+00  5.520E+01  6.141E+00  2.057E-01
   2   13    7     7     3    1.4339E+02  2.6804E+00   1.4071E+02  0.000E+00  0.000E+00  0.000E+00  1.02967E+03  2.249E+00  5.512E+01  5.574E+00  1.603E-01
   2   13    6     8     1    1.4147E+02  8.0922E-01   1.4066E+02  0.000E+00  0.000E+00  0.000E+00  1.02463E+03  2.753E+00  3.991E+01  4.067E+00  6.632E-02
   2   13    5     8     2    1.4066E+02 -2.4369E+00   1.4310E+02  0.000E+00  0.000E+00  0.000E+00  1.01838E+03  2.759E+00  4.000E+01  4.076E+00 -1.993E-01
   2   13    4     8     3    1.4310E+02 -5.4938E+00   1.4859E+02  0.000E+00  0.000E+00  0.000E+00  1.01216E+03  2.787E+00  4.042E+01  4.119E+00 -4.446E-01
   2   13    3     8     4    1.4859E+02 -6.2119E+00   1.5481E+02  0.000E+00  0.000E+00  0.000E+00  1.00595E+03  2.829E+00  4.102E+01  4.180E+00 -4.954E-01
   2   13    2     8     5    1.5481E+02 -3.7168E+00   1.5852E+02  0.000E+00  0.000E+00  0.000E+00  9.99738E+02  2.863E+00  4.152E+01  4.231E+00 -2.929E-01
   2   13    1     8     6    1.5852E+02 -2.4826E+00   1.6101E+02  0.000E+00  0.000E+00  0.000E+00  9.94759E+02  2.884E+00  4.182E+01  2.557E+00 -3.236E-01
   2    4    5     9     1    0.0000E+00  0.0000E+00   0.0000E+00  0.000E+00  0.000E+00  0.000E+00  1.06000E+03  0.000E+00  2.000E+01  2.000E-03  1.000E+00
   2    4    5    10     1    0.0000E+00  0.0000E+00   0.0000E+00  0.000E+00  0.000E+00  0.000E+00  1.08000E+03  0.000E+00  2.000E+01  2.000E-03  1.000E+00



 ..........LAKE  1 IS DRY..........


UNSATURATED ZONE PACKAGE VOLUMETRIC BUDGET FOR  TIME STEP    15 STRESS PERIOD    4
  ------------------------------------------------------------------------------



     CUMULATIVE VOLUMES      L**3       RATES FOR THIS TIME STEP      L**3/T
     ------------------                 ------------------------

           IN:                                      IN:
           ---                                      ---
        INFILTRATION =   846071460.0000          INFILTRATION =         169.0000

          OUT:                                     OUT:
          ----                                     ----
              UZF ET =   704963468.7224                UZF ET =          76.7195
        UZF RECHARGE =   255085084.4629          UZF RECHARGE =          33.2556

            IN - OUT =  -113977093.1853              IN - OUT =          59.0248

          STORAGE:                                 STORAGE:
          --------                                 --------
      STORAGE CHANGE =  -113848384.8819        STORAGE CHANGE =          59.0430

 PERCENT DISCREPANCY IS DIFFERENCE BETWEEN IN-OUT MINUS CHANGE IN STORAGE
 DIVIDED BY THE AVERAGE OF IN AND OUT TIMES 100

 PERCENT DISCREPANCY =          -0.00     PERCENT DISCREPANCY =          -0.01






1
  VOLUMETRIC BUDGET FOR ENTIRE MODEL AT END OF TIME STEP   15, STRESS PERIOD   4
  ------------------------------------------------------------------------------

     CUMULATIVE VOLUMES      L**3       RATES FOR THIS TIME STEP      L**3/T
     ------------------                 ------------------------

           IN:                                      IN:
           ---                                      ---
             STORAGE =    11354570.0000               STORAGE =           1.7616
       CONSTANT HEAD =           0.0000         CONSTANT HEAD =           0.0000
               WELLS =           0.0000                 WELLS =           0.0000
     HEAD DEP BOUNDS =     2258881.0000       HEAD DEP BOUNDS =           0.2143
      STREAM LEAKAGE =   489991648.0000        STREAM LEAKAGE =          41.0995
       LAKE  SEEPAGE =           0.0000         LAKE  SEEPAGE =           0.0000
        UZF RECHARGE =   255085088.0000          UZF RECHARGE =          33.2556
               GW ET =           0.0000                 GW ET =           0.0000
     SURFACE LEAKAGE =           0.0000       SURFACE LEAKAGE =           0.0000

            TOTAL IN =   758690176.0000              TOTAL IN =          76.3311

          OUT:                                     OUT:
          ----                                     ----
             STORAGE =   269416704.0000               STORAGE =          32.4161
       CONSTANT HEAD =           0.0000         CONSTANT HEAD =           0.0000
               WELLS =   157680000.0000                 WELLS =          10.0000
     HEAD DEP BOUNDS =     3040940.7500       HEAD DEP BOUNDS =           0.2937
      STREAM LEAKAGE =   197356656.0000        STREAM LEAKAGE =          21.1049
       LAKE  SEEPAGE =           0.0000         LAKE  SEEPAGE =           0.0000
        UZF RECHARGE =           0.0000          UZF RECHARGE =           0.0000
               GW ET =   131186616.0000                 GW ET =          12.5135
     SURFACE LEAKAGE =           0.0000       SURFACE LEAKAGE =           0.0000

           TOTAL OUT =   758680896.0000             TOTAL OUT =          76.3283

            IN - OUT =        9280.0000              IN - OUT =       2.7924E-03

 PERCENT DISCREPANCY =           0.00     PERCENT DISCREPANCY =           0.00






         TIME SUMMARY AT END OF TIME STEP   15 IN STRESS PERIOD    4
                    SECONDS     MINUTES      HOURS       DAYS        YEARS
                    -----------------------------------------------------------
   TIME STEP LENGTH 1.75200E+05  2920.0      48.667      2.0278     5.55175E-03
 STRESS PERIOD TIME 2.62800E+06  43800.      730.00      30.417     8.32763E-02
         TOTAL TIME 1.05120E+07 1.75200E+05  2920.0      121.67     0.33311    
1
1
                            STRESS PERIOD NO.    5, LENGTH =   2628000.    
                            -----------------------------------------------

                              NUMBER OF TIME STEPS =    15

                               MULTIPLIER FOR DELT =     1.000

                            INITIAL TIME STEP SIZE =   175200.0    

 WELL NO.  LAYER   ROW   COL   STRESS RATE         
 --------------------------------------------------
      1      2      6      4      -3.000    
      2      2      6      5      -3.000    
      3      2      7      4      -3.000    
      4      2      7      5      -3.000    
      5      2      8      4      -3.000    
      6      2      8      5      -3.000    
      7      2      9      4      -3.000    
      8      2      9      5      -3.000    
      9      2     10      4      -3.000    
     10      2     10      5      -3.000    

     10 WELLS

 REUSING NON-PARAMETER GHB CELLS FROM LAST STRESS PERIOD

      2 GHB CELLS

 REUSING STREAM SEGMENT DATA FROM LAST STRESS PERIOD



            AREAL INFILTRATION RATE
 READING ON UNIT   19 WITH FORMAT: (10F4.0)            

            1           2           3           4           5           6           7           8           9          10
 ........................................................................................................................
   1   5.0000E-09  1.0000E-08   0.000       0.000       0.000       0.000       0.000       0.000       0.000       0.000    
   2   1.0000E-08  5.0000E-09  1.0000E-08   0.000       0.000      4.0000E-08  4.0000E-08  2.5000E-08   0.000       0.000    
   3    0.000      2.5000E-08  5.0000E-09  5.0000E-09  4.0000E-08  4.0000E-08  2.5000E-08  2.5000E-08   0.000       0.000    
   4   4.0000E-08  2.5000E-08  5.0000E-09  5.0000E-09  5.0000E-09  5.0000E-09  5.0000E-09  5.0000E-09  1.0000E-08   0.000    
   5   4.0000E-08  2.5000E-08  5.0000E-09  5.0000E-09  5.0000E-09  5.0000E-09  5.0000E-09  5.0000E-09  5.0000E-09  5.0000E-09
   6   4.0000E-08  2.5000E-08  2.5000E-08  1.0000E-08  1.0000E-08  5.0000E-09  5.0000E-09  5.0000E-09  5.0000E-09  2.5000E-08
   7   4.0000E-08  2.5000E-08  2.5000E-08  1.0000E-08  1.0000E-08  5.0000E-09  5.0000E-09  1.0000E-08  1.0000E-08   0.000    
   8    0.000      2.5000E-08  2.5000E-08  1.0000E-08  1.0000E-08  5.0000E-09  5.0000E-09  1.0000E-08  2.5000E-08   0.000    
   9    0.000      2.5000E-08  2.5000E-08  1.0000E-08  1.0000E-08  5.0000E-09  5.0000E-09  1.0000E-08  2.5000E-08   0.000    
  10    0.000      2.5000E-08  2.5000E-08  1.0000E-08  1.0000E-08  5.0000E-09  5.0000E-09  1.0000E-08  2.5000E-08  4.0000E-08
  11    0.000      5.0000E-09  5.0000E-09  5.0000E-09  5.0000E-09  5.0000E-09  5.0000E-09  1.0000E-08  2.5000E-08   0.000    
  12   5.0000E-09  5.0000E-09  5.0000E-09  5.0000E-09  5.0000E-09  5.0000E-09  5.0000E-09  5.0000E-09  1.0000E-08   0.000    
  13   5.0000E-09  5.0000E-09  1.0000E-08  1.0000E-08  1.0000E-08  1.0000E-08  1.0000E-08  5.0000E-09  5.0000E-09   0.000    
  14    0.000      1.0000E-08  2.5000E-08  2.5000E-08  2.5000E-08  2.5000E-08  2.5000E-08  1.0000E-08  5.0000E-09   0.000    
  15    0.000       0.000      4.0000E-08  4.0000E-08  4.0000E-08  4.0000E-08   0.000       0.000       0.000       0.000    

USING ET RATE FROM PREVIOUS STRESS PERIOD. CURRENT PERIOD IS:       5

 USING ET EXTINCTION DEPTH FROM PREVIOUS STRESS PERIOD. CURRENT PERIOD IS:       5

 USING EXTINCTION WATER CONTENT FROM PREVIOUS STRESS PERIOD. CURRENT PERIOD IS:       5




 If any subsequent steady-state stress periods, min. and max. stages for each lake will be read in Record 9a.




 REUSING LAKE CONFIGURATION DATA FROM LAST STRESS PERIOD


 LAKE       PRECIP     EVAP     RUNOFF   WITHDRAW   BOTTOM     AREA
----------------------------------------------------------------------
   1     0.000E+00 4.000E-08 0.000E+00  0.000E+00 1.074E+03 2.500E+07




         C               INTERFACE CONDUCTANCES BETWEEN LAKE AND AQUIFER CELLS
   L     O          (IF TYPE = 6, CONDUCTANCE (L^2/T) IS BETWEEN AQUIFER CELL AND OVERLYING LAKE CELL.)
   A     L  L  T    (IF TYPE = 1 TO 4, CONDUCTANCES ARE PER UNIT SATURATED THICKNESS (L/T).)
   Y  R  U  A  Y
   E  O  M  K  P                        LAKEBED      C O N D U C T A N C E S
   R  W  N  E  E     DELTA Y   DELTA X  LEAKANCE   LAKEBED   AQUIFER  COMBINED
 _______________________________________________________________________________
   1  4  4  1  2    5.00E+03  5.00E+03  5.00E-02  2.50E+02  6.00E-03  6.00E-03
   1  3  5  1  3    5.00E+03  5.00E+03  5.00E-02  2.50E+02  1.20E-03  1.20E-03
   2  4  5  1  6    5.00E+03  5.00E+03  5.00E-02  1.25E+06  9.42E+00  9.42E+00
   1  5  5  1  4    5.00E+03  5.00E+03  5.00E-02  2.50E+02  6.00E-03  6.00E-03
   1  4  6  1  1    5.00E+03  5.00E+03  5.00E-02  2.50E+02  6.00E-03  6.00E-03
      LAKE     INFLOWING STREAM SEGMENT
         1                  9

 MAXIMUM NUMBER OF STREAMS INFLOWING TO A LAKE IS    1

      LAKE     OUTFLOWING STREAM SEGMENT
         1                 10

 MAXIMUM NUMBER OF STREAMS OUTFLOWING FROM A LAKE IS    1

 
 SOLVING FOR HEAD 
                                                   Max.-Head-Change                         Max.-Flux-Residual
  Residual-Control   Outer-Iter.   Inner-Iter.     Column Row Layer    Maximum-Head-Change  Column Row Layer    Maximum-Flux-Residual          L2-NORM 
          0                 1           2             6    2     2       0.2183598730E+00       6    2    2         0.2849941118E+01      0.7114107355E+01
          0                 2           2             6    2     2       0.1442642014E-01       6    2    2         0.1881706100E+00      0.4556817314E+00
          0                 3           1             6    2     2       0.9545849387E-03       6    2    2         0.1244451756E-01      0.2809820935E-01

    ------------------------------------------------
       NWT REQUIRED            3 OUTER ITERATIONS 
       AND A TOTAL OF          5 INNER ITERATIONS.
    ------------------------------------------------

 NO OUTPUT CONTROL FOR STRESS PERIOD    5   TIME STEP    1
 ..........LAKE  1 IS DRY..........
 
 SOLVING FOR HEAD 
                                                   Max.-Head-Change                         Max.-Flux-Residual
  Residual-Control   Outer-Iter.   Inner-Iter.     Column Row Layer    Maximum-Head-Change  Column Row Layer    Maximum-Flux-Residual          L2-NORM 
          0                 1           2             6    2     2       0.2170622520E+00       6    2    2         0.2833516418E+01      0.6879970212E+01
          0                 2           2             6    2     2       0.1433413467E-01       6    2    2         0.1870011074E+00      0.4725459432E+00
          0                 3           1             6    2     2       0.9480413027E-03       6    2    2         0.1236148746E-01      0.2915547072E-01

    ------------------------------------------------
       NWT REQUIRED            3 OUTER ITERATIONS 
       AND A TOTAL OF          5 INNER ITERATIONS.
    ------------------------------------------------

 NO OUTPUT CONTROL FOR STRESS PERIOD    5   TIME STEP    2
 ..........LAKE  1 IS DRY..........
 
 SOLVING FOR HEAD 
                                                   Max.-Head-Change                         Max.-Flux-Residual
  Residual-Control   Outer-Iter.   Inner-Iter.     Column Row Layer    Maximum-Head-Change  Column Row Layer    Maximum-Flux-Residual          L2-NORM 
          0                 1           2             6    2     2       0.2148212180E+00       6    2    2         0.2816593627E+01      0.8106650022E+01
          0                 2           2             6    2     2       0.1401888584E-01       6    2    2         0.1838387272E+00      0.5455967572E+00
          0                 3           1             6    2     2       0.9144016635E-03       6    2    2         0.1199460348E-01      0.3020419668E-01

    ------------------------------------------------
       NWT REQUIRED            3 OUTER ITERATIONS 
       AND A TOTAL OF          5 INNER ITERATIONS.
    ------------------------------------------------

 NO OUTPUT CONTROL FOR STRESS PERIOD    5   TIME STEP    3
 ..........LAKE  1 IS DRY..........
 
 SOLVING FOR HEAD 
                                                   Max.-Head-Change                         Max.-Flux-Residual
  Residual-Control   Outer-Iter.   Inner-Iter.     Column Row Layer    Maximum-Head-Change  Column Row Layer    Maximum-Flux-Residual          L2-NORM 
          0                 1           2             6    2     2       0.2115683563E+00       6    2    2         0.2785178181E+01      0.8460552618E+01
          0                 2           2             6    2     2       0.1381031621E-01       7   10    2        -0.2080620627E+00      0.6050045817E+00
          0                 3           1             6    2     2       0.9116165925E-03       7   10    2         0.1243789518E-01      0.3418128637E-01

    ------------------------------------------------
       NWT REQUIRED            3 OUTER ITERATIONS 
       AND A TOTAL OF          5 INNER ITERATIONS.
    ------------------------------------------------

 NO OUTPUT CONTROL FOR STRESS PERIOD    5   TIME STEP    4
 ..........LAKE  1 IS DRY..........
 
 SOLVING FOR HEAD 
                                                   Max.-Head-Change                         Max.-Flux-Residual
  Residual-Control   Outer-Iter.   Inner-Iter.     Column Row Layer    Maximum-Head-Change  Column Row Layer    Maximum-Flux-Residual          L2-NORM 
          0                 1           2             6    2     2       0.2099267497E+00       6    2    2         0.2743206831E+01      0.9214907766E+01
          0                 2           2             6    2     2       0.1383015060E-01       7   10    2        -0.1923138965E+00      0.6515654190E+00
          0                 3           1             6    2     2       0.9127054054E-03       6    2    2         0.1191489484E-01      0.3831130712E-01

    ------------------------------------------------
       NWT REQUIRED            3 OUTER ITERATIONS 
       AND A TOTAL OF          5 INNER ITERATIONS.
    ------------------------------------------------

 NO OUTPUT CONTROL FOR STRESS PERIOD    5   TIME STEP    5
 ..........LAKE  1 IS DRY..........
 
 SOLVING FOR HEAD 
                                                   Max.-Head-Change                         Max.-Flux-Residual
  Residual-Control   Outer-Iter.   Inner-Iter.     Column Row Layer    Maximum-Head-Change  Column Row Layer    Maximum-Flux-Residual          L2-NORM 
          0                 1           2             6    2     2       0.2083562107E+00       6    2    2         0.2723572279E+01      0.9623396961E+01
          0                 2           2             6    2     2       0.1372061685E-01       6    2    2         0.1791037980E+00      0.6666304056E+00
          0                 3           1             6    2     2       0.9055197556E-03       6    2    2         0.1182090770E-01      0.4016681881E-01

    ------------------------------------------------
       NWT REQUIRED            3 OUTER ITERATIONS 
       AND A TOTAL OF          5 INNER ITERATIONS.
    ------------------------------------------------

 NO OUTPUT CONTROL FOR STRESS PERIOD    5   TIME STEP    6
 ..........LAKE  1 IS DRY..........
 
 SOLVING FOR HEAD 
                                                   Max.-Head-Change                         Max.-Flux-Residual
  Residual-Control   Outer-Iter.   Inner-Iter.     Column Row Layer    Maximum-Head-Change  Column Row Layer    Maximum-Flux-Residual          L2-NORM 
          0                 1           2             1    7     2       0.2068686415E+00       6    2    2         0.2703126827E+01      0.9166410039E+01
          0                 2           2             5   15     2       0.1413703391E-01       5   15    2         0.1846198812E+00      0.6085209629E+00
          0                 3           1             5   15     2       0.9320410763E-03       5   15    2         0.1217281391E-01      0.3774340154E-01

    ------------------------------------------------
       NWT REQUIRED            3 OUTER ITERATIONS 
       AND A TOTAL OF          5 INNER ITERATIONS.
    ------------------------------------------------

 NO OUTPUT CONTROL FOR STRESS PERIOD    5   TIME STEP    7
 ..........LAKE  1 IS DRY..........
 
 SOLVING FOR HEAD 
                                                   Max.-Head-Change                         Max.-Flux-Residual
  Residual-Control   Outer-Iter.   Inner-Iter.     Column Row Layer    Maximum-Head-Change  Column Row Layer    Maximum-Flux-Residual          L2-NORM 
          0                 1           2             4   15     2       0.2064744227E+00       4   15    2         0.2691680929E+01      0.9568121299E+01
          0                 2           2             4   15     2       0.1365770006E-01       4   15    2         0.1782123835E+00      0.6185498318E+00
          0                 3           1             1    6     2       0.9263872298E-03       1    6    2         0.1210138548E-01      0.3876239268E-01

    ------------------------------------------------
       NWT REQUIRED            3 OUTER ITERATIONS 
       AND A TOTAL OF          5 INNER ITERATIONS.
    ------------------------------------------------

 NO OUTPUT CONTROL FOR STRESS PERIOD    5   TIME STEP    8
 ..........LAKE  1 IS DRY..........
 
 SOLVING FOR HEAD 
                                                   Max.-Head-Change                         Max.-Flux-Residual
  Residual-Control   Outer-Iter.   Inner-Iter.     Column Row Layer    Maximum-Head-Change  Column Row Layer    Maximum-Flux-Residual          L2-NORM 
          0                 1           2            10   10     2       0.2072372448E+00      10   10    2         0.2700149449E+01      0.9731857575E+01
          0                 2           2            10   10     2       0.1435236579E-01      10   10    2         0.1870392252E+00      0.6279357787E+00
          0                 3           1            10   10     2       0.9972249963E-03      10   10    2         0.1299522825E-01      0.3959839708E-01

    ------------------------------------------------
       NWT REQUIRED            3 OUTER ITERATIONS 
       AND A TOTAL OF          5 INNER ITERATIONS.
    ------------------------------------------------

 OUTPUT CONTROL FOR STRESS PERIOD    5   TIME STEP    9
    PRINT BUDGET
    PRINT HEAD FOR ALL LAYERS
    SAVE HEAD FOR ALL LAYERS
    SAVE BUDGET

            WELLS   PERIOD    5   STEP   9
 WELL      1   LAYER   2   ROW     6   COL     4   RATE    -3.00000    
 WELL      2   LAYER   2   ROW     6   COL     5   RATE    -3.00000    
 WELL      3   LAYER   2   ROW     7   COL     4   RATE    -3.00000    
 WELL      4   LAYER   2   ROW     7   COL     5   RATE    -3.00000    
 WELL      5   LAYER   2   ROW     8   COL     4   RATE    -3.00000    
 WELL      6   LAYER   2   ROW     8   COL     5   RATE    -3.00000    
 WELL      7   LAYER   2   ROW     9   COL     4   RATE    -3.00000    
 WELL      8   LAYER   2   ROW     9   COL     5   RATE    -3.00000    
 WELL      9   LAYER   2   ROW    10   COL     4   RATE    -3.00000    
 WELL     10   LAYER   2   ROW    10   COL     5   RATE    -3.00000    

  HEAD DEP BOUNDS   PERIOD    5   STEP     9
 BOUNDARY      1   LAYER   2   ROW    13   COL     1   RATE   -0.291958    
 BOUNDARY      2   LAYER   2   ROW    14   COL     9   RATE    0.213659    



 STREAM LISTING     PERIOD      5   STEP        9

 LAYER ROW COL. STREAM  RCH.  FLOW INTO     FLOW TO   FLOW OUT OF   OVRLND.     DIRECT     STREAM       STREAM     STREAM     STREAM   STREAMBED  STREAMBED
                SEG.NO.  NO.  STRM. RCH.    AQUIFER    STRM. RCH.    RUNOFF     PRECIP       ET          HEAD       DEPTH      WIDTH   CONDCTNC.   GRADIENT

   2    1    1     1     1    2.9000E+01  2.1063E+00   2.6894E+01  0.000E+00  0.000E+00  0.000E+00  1.09427E+03  1.222E+00  1.363E+01  6.132E-01  1.145E+00
   2    2    2     1     2    2.6894E+01  3.8210E+00   2.3073E+01  0.000E+00  0.000E+00  0.000E+00  1.08924E+03  1.180E+00  1.306E+01  9.141E-01  1.393E+00
   2    3    3     1     3    2.3073E+01  3.0560E+00   2.0017E+01  0.000E+00  0.000E+00  0.000E+00  1.08354E+03  1.126E+00  1.234E+01  7.407E-01  1.375E+00
   2    3    4     1     4    2.0017E+01  2.6274E+00   1.7389E+01  0.000E+00  0.000E+00  0.000E+00  1.07849E+03  1.079E+00  1.161E+01  6.442E-01  1.360E+00
   2    4    5     2     1    7.3893E+00  2.7408E+00   4.6485E+00  0.000E+00  0.000E+00  0.000E+00  1.07245E+03  5.139E-01  1.200E+01  7.800E-01  1.171E+00
   2    5    6     2     2    4.6485E+00  2.0278E+00   2.6207E+00  0.000E+00  0.000E+00  0.000E+00  1.06689E+03  3.797E-01  1.200E+01  6.000E-01  1.127E+00
   2    6    6     2     3    2.6207E+00  1.9418E+00   6.7884E-01  0.000E+00  0.000E+00  0.000E+00  1.06203E+03  2.364E-01  1.200E+01  6.000E-01  1.079E+00
   2    7    6     2     4    6.7884E-01  6.7884E-01   0.0000E+00  0.000E+00  0.000E+00  0.000E+00  1.05711E+03  3.122E-02  1.200E+01  6.000E-01  1.010E+00
   2    8    6     2     5    0.0000E+00  0.0000E+00   0.0000E+00  0.000E+00  0.000E+00  0.000E+00  1.05236E+03  0.000E+00  1.200E+01  6.000E-01  1.000E+00
   2    3    5     3     1    1.0000E+01  2.8252E+00   7.1748E+00  0.000E+00  0.000E+00  0.000E+00  1.07555E+03  1.909E+00  9.636E+00  7.227E-01  1.955E+00
   2    3    6     3     2    7.1748E+00  2.4905E+00   4.6843E+00  0.000E+00  0.000E+00  0.000E+00  1.07264E+03  1.727E+00  8.909E+00  6.682E-01  1.864E+00
   2    3    7     3     3    4.6843E+00  1.9718E+00   2.7125E+00  0.000E+00  0.000E+00  0.000E+00  1.06987E+03  1.555E+00  8.218E+00  5.547E-01  1.777E+00
   2    4    8     3     4    2.7125E+00  2.2567E+00   4.5579E-01  0.000E+00  0.000E+00  0.000E+00  1.06682E+03  1.364E+00  7.455E+00  6.709E-01  1.682E+00
   2    5    8     3     5    4.5579E-01  4.5579E-01   0.0000E+00  0.000E+00  0.000E+00  0.000E+00  1.06362E+03  0.000E+00  6.655E+00  4.991E-01  1.582E+00
   2    6    8     3     6    0.0000E+00  0.0000E+00   0.0000E+00  0.000E+00  0.000E+00  0.000E+00  1.06055E+03  0.000E+00  6.145E+00  1.844E-01  1.000E+00
   2    5   10     4     1    1.0000E+01  9.0525E-01   9.0947E+00  0.000E+00  0.000E+00  0.000E+00  1.07835E+03  6.210E-01  1.000E+01  2.500E-01  1.207E+00
   2    5    9     4     2    9.0947E+00  1.7835E+00   7.3113E+00  0.000E+00  0.000E+00  0.000E+00  1.07148E+03  5.670E-01  1.000E+01  5.000E-01  1.189E+00
   2    6    8     4     3    7.3113E+00  1.2257E+00   6.0855E+00  0.000E+00  0.000E+00  0.000E+00  1.06368E+03  5.021E-01  1.000E+01  3.500E-01  1.167E+00
   2    6    8     5     1    6.0855E+00  1.4716E+00   4.6139E+00  0.000E+00  0.000E+00  0.000E+00  1.05854E+03  5.396E-01  1.039E+01  4.158E-01  1.180E+00
   2    7    7     5     2    4.6139E+00  1.4897E+00   3.1242E+00  0.000E+00  0.000E+00  0.000E+00  1.05398E+03  4.817E-01  8.557E+00  4.279E-01  1.161E+00
   2    8    7     5     3    3.1242E+00  8.2855E-01   2.2957E+00  0.000E+00  0.000E+00  0.000E+00  1.04968E+03  4.253E-01  6.911E+00  2.419E-01  1.142E+00
   2    8    6     5     4    2.2957E+00  4.9455E-01   1.8011E+00  0.000E+00  0.000E+00  0.000E+00  1.04664E+03  3.856E-01  5.843E+00  1.461E-01  1.129E+00
   2    9    6     6     1    1.8011E+00  1.8011E+00   0.0000E+00  0.000E+00  0.000E+00  0.000E+00  1.04278E+03  5.669E-02  1.200E+01  6.000E-01  1.019E+00
   2   10    7     6     2    0.0000E+00  0.0000E+00   0.0000E+00  0.000E+00  0.000E+00  0.000E+00  1.03818E+03  0.000E+00  1.200E+01  6.000E-01  1.000E+00
   2   11    7     6     3    0.0000E+00  0.0000E+00   0.0000E+00  0.000E+00  0.000E+00  0.000E+00  1.03364E+03  0.000E+00  1.200E+01  6.000E-01  1.000E+00
   2   12    7     6     4    0.0000E+00  0.0000E+00   0.0000E+00  0.000E+00  0.000E+00  0.000E+00  1.02909E+03  0.000E+00  1.200E+01  6.000E-01  4.918E-01
   2   13    7     6     5    0.0000E+00 -7.5301E-01   7.5301E-01  0.000E+00  0.000E+00  0.000E+00  1.02601E+03  9.850E-02  1.200E+01  2.400E-01 -1.046E+00
   2   14    9     7     1    1.5000E+02  2.7247E+00   1.4728E+02  0.000E+00  0.000E+00  0.000E+00  1.03986E+03  2.284E+00  5.528E+01  5.591E+00  1.624E-01
   2   13    8     7     2    1.4728E+02  3.6784E+00   1.4360E+02  0.000E+00  0.000E+00  0.000E+00  1.03477E+03  2.267E+00  5.520E+01  6.141E+00  1.997E-01
   2   13    7     7     3    1.4360E+02  2.9173E+00   1.4068E+02  0.000E+00  0.000E+00  0.000E+00  1.02967E+03  2.249E+00  5.512E+01  5.574E+00  1.745E-01
   2   13    6     8     1    1.4143E+02  1.0507E+00   1.4038E+02  0.000E+00  0.000E+00  0.000E+00  1.02463E+03  2.752E+00  3.990E+01  4.066E+00  8.614E-02
   2   13    5     8     2    1.4038E+02 -2.1024E+00   1.4248E+02  0.000E+00  0.000E+00  0.000E+00  1.01838E+03  2.755E+00  3.995E+01  4.071E+00 -1.721E-01
   2   13    4     8     3    1.4248E+02 -5.1233E+00   1.4761E+02  0.000E+00  0.000E+00  0.000E+00  1.01216E+03  2.782E+00  4.033E+01  4.110E+00 -4.155E-01
   2   13    3     8     4    1.4761E+02 -5.8489E+00   1.5346E+02  0.000E+00  0.000E+00  0.000E+00  1.00595E+03  2.821E+00  4.090E+01  4.168E+00 -4.678E-01
   2   13    2     8     5    1.5346E+02 -3.7306E+00   1.5719E+02  0.000E+00  0.000E+00  0.000E+00  9.99729E+02  2.854E+00  4.138E+01  4.217E+00 -2.949E-01
   2   13    1     8     6    1.5719E+02 -2.3786E+00   1.5957E+02  0.000E+00  0.000E+00  0.000E+00  9.94750E+02  2.875E+00  4.169E+01  2.549E+00 -3.111E-01
   2    4    5     9     1    0.0000E+00  0.0000E+00   0.0000E+00  0.000E+00  0.000E+00  0.000E+00  1.06000E+03  0.000E+00  2.000E+01  2.000E-03  1.000E+00
   2    4    5    10     1    0.0000E+00  0.0000E+00   0.0000E+00  0.000E+00  0.000E+00  0.000E+00  1.08000E+03  0.000E+00  2.000E+01  2.000E-03  1.000E+00



 ..........LAKE  1 IS DRY..........

     SECTIONS OF THE LAKE BOTTOM HAVE BECOME DRY.  THE DRYSECTIONS
     LIE ABOVE THE FOLLOWING  1 AQUIFER CELLS (LAYER,ROW,COLUMN):
     (  2,  4,  5)  (

 PERIOD     5     TIME STEP     9     TIME STEP LENGTH  1.7520E+05
 PERIOD TIME  1.5768E+06     TOTAL SIMULATION TIME  1.2089E+07


                 HYDROLOGIC BUDGET SUMMARIES FOR SIMULATED LAKES
     (ALL FLUID FLUXES ARE VOLUMES ADDED TO THE LAKE DURING PRESENT TIME STEP)
     ----------------------------------------------------------------------------------------
 LAKE    STAGE         VOLUME     VOL. CHANGE      PRECIP     EVAPORATION    SPECIFIED RUNOFF     COMPUTED RUNOFF    TOTAL RUNOFF
   1  1.074500E+03  0.000000E+00  0.000000E+00  0.000000E+00  0.000000E+00   0.000000E+00          0.000000E+00      0.000000E+00

            GROUND WATER            SURFACE WATER        WATER          UZF INFIL.
 LAKE    INFLOW     OUTFLOW      INFLOW     OUTFLOW       USE        FROM LAKE
   1  0.0000E+00  0.0000E+00  0.0000E+00  0.0000E+00  0.0000E+00       0.0000E+00

      CONNECTED LAKE   TIME-STEP         STAGE-CHANGE          PERCENT
 LAKE    INFLUX      SURFACE AREA   TIME STEP  CUMULATIVE    DISCREPANCY
   1   0.0000E+00     0.0000E+00   0.0000E+00  0.0000E+00       0.000
 --------------------------------------------------------------------------------



            CUMULATIVE HYDROLOGIC BUDGET SUMMARIES FOR SIMULATED LAKES
     (ALL FLUID FLUXES ARE SUMS OF VOLUMES ADDED TO THE LAKE SINCE INITIAL TIME)
     ---------------------------------------------------------------------------
 LAKE       PRECIP       EVAP     SPECIFIED RUNOFF   COMPUTED RUNOFF   TOTAL RUNOFF
   1     0.0000E+00  0.0000E+00       0.0000E+00       0.0000E+00       0.0000E+00

            GROUND WATER            SURFACE WATER       UZF INFIL.
 LAKE    INFLOW     OUTFLOW      INFLOW     OUTFLOW     FROM LAKE
   1  0.0000E+00  0.0000E+00  0.0000E+00  0.0000E+00    0.0000E+00

         WATER    CONNECTED LAKE   CHANGE       PERCENT
 LAKE     USE         INFLUX       IN VOL.    DISCREPANCY
   1   0.0000E+00   0.0000E+00   0.0000E+00      0.000
 --------------------------------------------------------------------------------

 UBDSV3 SAVING "           GW ET" ON UNIT  61 AT TIME STEP     9, STRESS PERIOD   5
 UBDSV3 SAVING "    UZF RECHARGE" ON UNIT  61 AT TIME STEP     9, STRESS PERIOD   5
 UBDSV3 SAVING " SURFACE LEAKAGE" ON UNIT  61 AT TIME STEP     9, STRESS PERIOD   5
 UBDSV3 SAVING "       HORT+DUNN" ON UNIT  61 AT TIME STEP     9, STRESS PERIOD   5
 UBDSV3 SAVING "  STORAGE CHANGE" ON UNIT  61 AT TIME STEP     9, STRESS PERIOD   5


UNSATURATED ZONE PACKAGE VOLUMETRIC BUDGET FOR  TIME STEP     9 STRESS PERIOD    5
  ------------------------------------------------------------------------------



     CUMULATIVE VOLUMES      L**3       RATES FOR THIS TIME STEP      L**3/T
     ------------------                 ------------------------

           IN:                                      IN:
           ---                                      ---
        INFILTRATION =   912691260.0000          INFILTRATION =          42.2500

          OUT:                                     OUT:
          ----                                     ----
              UZF ET =   831396708.8301                UZF ET =          82.6879
        UZF RECHARGE =   313071971.7814          UZF RECHARGE =          50.0143

            IN - OUT =  -231777420.6115              IN - OUT =         -90.4522

          STORAGE:                                 STORAGE:
          --------                                 --------
      STORAGE CHANGE =  -231648240.6329        STORAGE CHANGE =         -90.4406

 PERCENT DISCREPANCY IS DIFFERENCE BETWEEN IN-OUT MINUS CHANGE IN STORAGE
 DIVIDED BY THE AVERAGE OF IN AND OUT TIMES 100

 PERCENT DISCREPANCY =          -0.00     PERCENT DISCREPANCY =          -0.01






1
              HEAD IN LAYER   1 AT END OF TIME STEP     9 IN STRESS PERIOD    5
  -----------------------------------------------------------------------------

           1       2       3       4       5       6       7       8       9      10
 ...................................................................................
   1  6999.00 6999.00 6999.00 6999.00 6999.00 6999.00 6999.00 6999.00 6999.00 6999.00
   2  6999.00 6999.00 6999.00 6999.00 6999.00 6999.00 6999.00 6999.00 6999.00 6999.00
   3  6999.00 6999.00 6999.00 6999.00 6999.00 6999.00 6999.00 6999.00 6999.00 6999.00
   4  6999.00 6999.00 6999.00 6999.00 6999.00 6999.00 6999.00 6999.00 6999.00 6999.00
   5  6999.00 6999.00 6999.00 6999.00 6999.00 6999.00 6999.00 6999.00 6999.00 6999.00
   6  6999.00 6999.00 6999.00 6999.00 6999.00 6999.00 6999.00 6999.00 6999.00 6999.00
   7  6999.00 6999.00 6999.00 6999.00 6999.00 6999.00 6999.00 6999.00 6999.00 6999.00
   8  6999.00 6999.00 6999.00 6999.00 6999.00 6999.00 6999.00 6999.00 6999.00 6999.00
   9  6999.00 6999.00 6999.00 6999.00 6999.00 6999.00 6999.00 6999.00 6999.00 6999.00
  10  6999.00 6999.00 6999.00 6999.00 6999.00 6999.00 6999.00 6999.00 6999.00 6999.00
  11  6999.00 6999.00 6999.00 6999.00 6999.00 6999.00 6999.00 6999.00 6999.00 6999.00
  12  6999.00 6999.00 6999.00 6999.00 6999.00 6999.00 6999.00 6999.00 6999.00 6999.00
  13  6999.00 6999.00 6999.00 6999.00 6999.00 6999.00 6999.00 6999.00 6999.00 6999.00
  14  6999.00 6999.00 6999.00 6999.00 6999.00 6999.00 6999.00 6999.00 6999.00 6999.00
  15  6999.00 6999.00 6999.00 6999.00 6999.00 6999.00 6999.00 6999.00 6999.00 6999.00
1
              HEAD IN LAYER   2 AT END OF TIME STEP     9 IN STRESS PERIOD    5
  -----------------------------------------------------------------------------

           1       2       3       4       5       6       7       8       9      10
 ...................................................................................
   1  1090.84 1085.46 6999.00 6999.00 6999.00 6999.00 6999.00 6999.00 6999.00 6999.00
   2  1085.71 1079.68 1072.75 6999.00 6999.00 1066.40 1066.25 1063.46 6999.00 6999.00
   3  6999.00 1069.41 1065.69 1062.00 1063.90 1065.04 1064.94 1062.74 6999.00 6999.00
   4  1059.59 1060.24 1058.69 1055.63 1054.61 1053.78 1055.17 1059.18 1058.02 6999.00
   5  1055.24 1053.38 1051.66 1049.89 1049.60 1049.95 1049.92 1051.68 1055.15 1057.38
   6  1051.13 1048.17 1046.04 1044.39 1044.55 1046.23 1047.27 1049.44 1052.19 1056.51
   7  1047.93 1043.34 1041.14 1039.73 1040.25 1042.31 1044.08 1046.30 1049.00 6999.00
   8  6999.00 1038.12 1036.55 1035.44 1036.07 1038.17 1039.75 1042.82 1044.48 6999.00
   9  6999.00 1032.44 1031.64 1031.00 1031.84 1034.05 1035.12 1037.16 1039.78 6999.00
  10  6999.00 1026.70 1026.67 1026.84 1028.03 1030.12 1031.37 1033.07 1035.88 1037.05
  11  6999.00 1019.62 1020.48 1023.15 1025.08 1027.25 1028.94 1030.98 1034.24 6999.00
  12  1003.07 1009.51 1013.71 1018.14 1021.67 1025.06 1027.62 1030.76 1034.59 6999.00
  13   995.68 1000.61 1007.35 1013.40 1018.90 1024.37 1029.15 1034.17 1036.72 6999.00
  14  6999.00 1006.69 1010.25 1015.04 1020.05 1025.28 1030.55 1035.17 1039.38 6999.00
  15  6999.00 6999.00 1015.07 1018.10 1022.08 1025.57 6999.00 6999.00 6999.00 6999.00

 HEAD WILL BE SAVED ON UNIT   58 AT END OF TIME STEP    9, STRESS PERIOD    5
1
  VOLUMETRIC BUDGET FOR ENTIRE MODEL AT END OF TIME STEP    9, STRESS PERIOD   5
  ------------------------------------------------------------------------------

     CUMULATIVE VOLUMES      L**3       RATES FOR THIS TIME STEP      L**3/T
     ------------------                 ------------------------

           IN:                                      IN:
           ---                                      ---
             STORAGE =    35109820.0000               STORAGE =          14.0829
       CONSTANT HEAD =           0.0000         CONSTANT HEAD =           0.0000
               WELLS =           0.0000                 WELLS =           0.0000
     HEAD DEP BOUNDS =     2596430.7500       HEAD DEP BOUNDS =           0.2137
      STREAM LEAKAGE =   571383488.0000        STREAM LEAKAGE =          49.3710
       LAKE  SEEPAGE =           0.0000         LAKE  SEEPAGE =           0.0000
        UZF RECHARGE =   313071936.0000          UZF RECHARGE =          50.0143
               GW ET =           0.0000                 GW ET =           0.0000
     SURFACE LEAKAGE =           0.0000       SURFACE LEAKAGE =           0.0000

            TOTAL IN =   922161664.0000              TOTAL IN =         113.6819

          OUT:                                     OUT:
          ----                                     ----
             STORAGE =   333459776.0000               STORAGE =          51.1510
       CONSTANT HEAD =           0.0000         CONSTANT HEAD =           0.0000
               WELLS =   204984000.0000                 WELLS =          30.0000
     HEAD DEP BOUNDS =     3502871.7500       HEAD DEP BOUNDS =           0.2920
      STREAM LEAKAGE =   229458928.0000        STREAM LEAKAGE =          19.9369
       LAKE  SEEPAGE =           0.0000         LAKE  SEEPAGE =           0.0000
        UZF RECHARGE =           0.0000          UZF RECHARGE =           0.0000
               GW ET =   150737920.0000                 GW ET =          12.2933
     SURFACE LEAKAGE =           0.0000       SURFACE LEAKAGE =           0.0000

           TOTAL OUT =   922143488.0000             TOTAL OUT =         113.6732

            IN - OUT =       18176.0000              IN - OUT =       8.6746E-03

 PERCENT DISCREPANCY =           0.00     PERCENT DISCREPANCY =           0.01






         TIME SUMMARY AT END OF TIME STEP    9 IN STRESS PERIOD    5
                    SECONDS     MINUTES      HOURS       DAYS        YEARS
                    -----------------------------------------------------------
   TIME STEP LENGTH 1.75200E+05  2920.0      48.667      2.0278     5.55175E-03
 STRESS PERIOD TIME 1.57680E+06  26280.      438.00      18.250     4.99658E-02
         TOTAL TIME 1.20888E+07 2.01480E+05  3358.0      139.92     0.38307    
1
 
 SOLVING FOR HEAD 
                                                   Max.-Head-Change                         Max.-Flux-Residual
  Residual-Control   Outer-Iter.   Inner-Iter.     Column Row Layer    Maximum-Head-Change  Column Row Layer    Maximum-Flux-Residual          L2-NORM 
          0                 1           2             2    2     2       0.7977282983E+00       2    2    2         0.2151485453E+02      0.5482669633E+02
          0                 2           2             2    2     2      -0.7620289759E-01       4   13    2        -0.2381194756E+01      0.4587589225E+01
          0                 3           2             2    2     2       0.4349247203E-02       2    2    2         0.1265278033E+00      0.2122488668E+00
          0                 4           1             2    2     2      -0.8732555276E-04       2    2    2        -0.2636627668E-02      0.5182436135E-02

    ------------------------------------------------
       NWT REQUIRED            4 OUTER ITERATIONS 
       AND A TOTAL OF          7 INNER ITERATIONS.
    ------------------------------------------------

 OUTPUT CONTROL FOR STRESS PERIOD    5   TIME STEP   10
    PRINT BUDGET
    SAVE BUDGET

            WELLS   PERIOD    5   STEP  10
 WELL      1   LAYER   2   ROW     6   COL     4   RATE    -3.00000    
 WELL      2   LAYER   2   ROW     6   COL     5   RATE    -3.00000    
 WELL      3   LAYER   2   ROW     7   COL     4   RATE    -3.00000    
 WELL      4   LAYER   2   ROW     7   COL     5   RATE    -3.00000    
 WELL      5   LAYER   2   ROW     8   COL     4   RATE    -3.00000    
 WELL      6   LAYER   2   ROW     8   COL     5   RATE    -3.00000    
 WELL      7   LAYER   2   ROW     9   COL     4   RATE    -3.00000    
 WELL      8   LAYER   2   ROW     9   COL     5   RATE    -3.00000    
 WELL      9   LAYER   2   ROW    10   COL     4   RATE    -3.00000    
 WELL     10   LAYER   2   ROW    10   COL     5   RATE    -3.00000    

  HEAD DEP BOUNDS   PERIOD    5   STEP    10
 BOUNDARY      1   LAYER   2   ROW    13   COL     1   RATE   -0.302177    
 BOUNDARY      2   LAYER   2   ROW    14   COL     9   RATE    0.213532    



 STREAM LISTING     PERIOD      5   STEP       10

 LAYER ROW COL. STREAM  RCH.  FLOW INTO     FLOW TO   FLOW OUT OF   OVRLND.     DIRECT     STREAM       STREAM     STREAM     STREAM   STREAMBED  STREAMBED
                SEG.NO.  NO.  STRM. RCH.    AQUIFER    STRM. RCH.    RUNOFF     PRECIP       ET          HEAD       DEPTH      WIDTH   CONDCTNC.   GRADIENT

   2    1    1     1     1    9.3895E+02  1.3629E+01   9.2533E+02  0.000E+00  0.000E+00  0.000E+00  1.09718E+03  4.135E+00  5.093E+01  2.292E+00  1.982E+00
   2    2    2     1     2    9.2533E+02  2.5125E+01   9.0020E+02  0.000E+00  0.000E+00  0.000E+00  1.09216E+03  4.103E+00  5.053E+01  3.537E+00  2.368E+00
   2    3    3     1     3    9.0020E+02  2.1211E+01   8.7899E+02  0.000E+00  0.000E+00  0.000E+00  1.08648E+03  4.064E+00  5.005E+01  3.003E+00  2.355E+00
   2    3    4     1     4    8.7899E+02  1.9355E+01   8.5964E+02  0.000E+00  0.000E+00  0.000E+00  1.08144E+03  4.029E+00  4.961E+01  2.754E+00  2.343E+00
   2    4    5     2     1    8.4964E+02  1.0124E+01   8.3951E+02  0.000E+00  0.000E+00  0.000E+00  1.08191E+03  9.980E+00  1.200E+01  7.800E-01  4.327E+00
   2    5    6     2     2    8.3951E+02  7.7498E+00   8.3176E+02  0.000E+00  0.000E+00  0.000E+00  1.07643E+03  9.916E+00  1.200E+01  6.000E-01  4.305E+00
   2    6    6     2     3    8.3176E+02  7.7168E+00   8.2404E+02  0.000E+00  0.000E+00  0.000E+00  1.07165E+03  9.861E+00  1.200E+01  6.000E-01  4.287E+00
   2    7    6     2     4    8.2404E+02  7.6837E+00   8.1636E+02  0.000E+00  0.000E+00  0.000E+00  1.06688E+03  9.806E+00  1.200E+01  6.000E-01  4.269E+00
   2    8    6     2     5    8.1636E+02  7.6506E+00   8.0871E+02  0.000E+00  0.000E+00  0.000E+00  1.06211E+03  9.751E+00  1.200E+01  6.000E-01  4.250E+00
   2    3    5     3     1    1.0000E+01  2.8252E+00   7.1748E+00  0.000E+00  0.000E+00  0.000E+00  1.07555E+03  1.909E+00  9.636E+00  7.227E-01  1.955E+00
   2    3    6     3     2    7.1748E+00  2.4905E+00   4.6843E+00  0.000E+00  0.000E+00  0.000E+00  1.07264E+03  1.727E+00  8.909E+00  6.682E-01  1.864E+00
   2    3    7     3     3    4.6843E+00  1.9718E+00   2.7125E+00  0.000E+00  0.000E+00  0.000E+00  1.06987E+03  1.555E+00  8.218E+00  5.547E-01  1.777E+00
   2    4    8     3     4    2.7125E+00  2.2567E+00   4.5579E-01  0.000E+00  0.000E+00  0.000E+00  1.06682E+03  1.364E+00  7.455E+00  6.709E-01  1.682E+00
   2    5    8     3     5    4.5579E-01  4.5579E-01   0.0000E+00  0.000E+00  0.000E+00  0.000E+00  1.06362E+03  0.000E+00  6.655E+00  4.991E-01  1.582E+00
   2    6    8     3     6    0.0000E+00  0.0000E+00   0.0000E+00  0.000E+00  0.000E+00  0.000E+00  1.06055E+03  0.000E+00  6.145E+00  1.844E-01  1.000E+00
   2    5   10     4     1    1.0000E+01  9.0525E-01   9.0947E+00  0.000E+00  0.000E+00  0.000E+00  1.07835E+03  6.210E-01  1.000E+01  2.500E-01  1.207E+00
   2    5    9     4     2    9.0947E+00  1.7835E+00   7.3113E+00  0.000E+00  0.000E+00  0.000E+00  1.07148E+03  5.670E-01  1.000E+01  5.000E-01  1.189E+00
   2    6    8     4     3    7.3113E+00  1.2257E+00   6.0855E+00  0.000E+00  0.000E+00  0.000E+00  1.06368E+03  5.021E-01  1.000E+01  3.500E-01  1.167E+00
   2    6    8     5     1    6.0855E+00  1.4716E+00   4.6139E+00  0.000E+00  0.000E+00  0.000E+00  1.05854E+03  5.396E-01  1.039E+01  4.158E-01  1.180E+00
   2    7    7     5     2    4.6139E+00  1.4897E+00   3.1242E+00  0.000E+00  0.000E+00  0.000E+00  1.05398E+03  4.817E-01  8.557E+00  4.279E-01  1.161E+00
   2    8    7     5     3    3.1242E+00  8.2855E-01   2.2957E+00  0.000E+00  0.000E+00  0.000E+00  1.04968E+03  4.253E-01  6.911E+00  2.419E-01  1.142E+00
   2    8    6     5     4    2.2957E+00  4.9455E-01   1.8011E+00  0.000E+00  0.000E+00  0.000E+00  1.04664E+03  3.856E-01  5.843E+00  1.461E-01  1.129E+00
   2    9    6     6     1    8.1051E+02  7.6903E+00   8.0282E+02  0.000E+00  0.000E+00  0.000E+00  1.05254E+03  9.817E+00  1.200E+01  6.000E-01  4.272E+00
   2   10    7     6     2    8.0282E+02  7.6566E+00   7.9516E+02  0.000E+00  0.000E+00  0.000E+00  1.04794E+03  9.761E+00  1.200E+01  6.000E-01  4.254E+00
   2   11    7     6     3    7.9516E+02  7.6230E+00   7.8754E+02  0.000E+00  0.000E+00  0.000E+00  1.04334E+03  9.705E+00  1.200E+01  6.000E-01  4.235E+00
   2   12    7     6     4    7.8754E+02  6.5339E+00   7.8101E+02  0.000E+00  0.000E+00  0.000E+00  1.03874E+03  9.653E+00  1.200E+01  6.000E-01  3.630E+00
   2   13    7     6     5    7.8101E+02  1.5143E+00   7.7949E+02  0.000E+00  0.000E+00  0.000E+00  1.03553E+03  9.623E+00  1.200E+01  2.400E-01  2.103E+00
   2   14    9     7     1    1.5000E+02  2.7063E+00   1.4729E+02  0.000E+00  0.000E+00  0.000E+00  1.03986E+03  2.284E+00  5.528E+01  5.591E+00  1.613E-01
   2   13    8     7     2    1.4729E+02  3.6828E+00   1.4361E+02  0.000E+00  0.000E+00  0.000E+00  1.03477E+03  2.267E+00  5.520E+01  6.141E+00  1.999E-01
   2   13    7     7     3    1.4361E+02  2.4925E+00   1.4112E+02  0.000E+00  0.000E+00  0.000E+00  1.02967E+03  2.250E+00  5.513E+01  5.575E+00  1.490E-01
   2   13    6     8     1    9.2061E+02  1.6073E+01   9.0485E+02  3.073E-01  0.000E+00  0.000E+00  1.02732E+03  5.445E+00  6.410E+01  6.586E+00  8.135E-01
   2   13    5     8     2    9.0485E+02  1.1026E+01   8.9413E+02  3.073E-01  0.000E+00  0.000E+00  1.02104E+03  5.415E+00  6.397E+01  6.571E+00  5.593E-01
   2   13    4     8     3    8.9413E+02  6.5650E+00   8.8787E+02  3.073E-01  0.000E+00  0.000E+00  1.01477E+03  5.395E+00  6.389E+01  6.562E+00  3.335E-01
   2   13    3     8     4    8.8787E+02  5.2331E+00   8.8294E+02  3.073E-01  0.000E+00  0.000E+00  1.00851E+03  5.382E+00  6.383E+01  6.556E+00  2.661E-01
   2   13    2     8     5    8.8294E+02  7.9389E+00   8.7531E+02  3.073E-01  0.000E+00  0.000E+00  1.00224E+03  5.367E+00  6.377E+01  6.549E+00  4.041E-01
   2   13    1     8     6    8.7531E+02  5.0074E+00   8.7049E+02  1.844E-01  0.000E+00  0.000E+00  9.97228E+02  5.353E+00  6.371E+01  3.925E+00  4.252E-01
   2    4    5     9     1    0.0000E+00  0.0000E+00   0.0000E+00  0.000E+00  0.000E+00  0.000E+00  1.06000E+03  0.000E+00  2.000E+01  2.000E-03  1.000E+00
   2    4    5    10     1    0.0000E+00  0.0000E+00   0.0000E+00  0.000E+00  0.000E+00  0.000E+00  1.08000E+03  0.000E+00  2.000E+01  2.000E-03  1.000E+00



 ..........LAKE  1 IS DRY..........

     SECTIONS OF THE LAKE BOTTOM HAVE BECOME DRY.  THE DRYSECTIONS
     LIE ABOVE THE FOLLOWING  1 AQUIFER CELLS (LAYER,ROW,COLUMN):
     (  2,  4,  5)  (

 PERIOD     5     TIME STEP    10     TIME STEP LENGTH  1.7520E+05
 PERIOD TIME  1.7520E+06     TOTAL SIMULATION TIME  1.2264E+07


                 HYDROLOGIC BUDGET SUMMARIES FOR SIMULATED LAKES
     (ALL FLUID FLUXES ARE VOLUMES ADDED TO THE LAKE DURING PRESENT TIME STEP)
     ----------------------------------------------------------------------------------------
 LAKE    STAGE         VOLUME     VOL. CHANGE      PRECIP     EVAPORATION    SPECIFIED RUNOFF     COMPUTED RUNOFF    TOTAL RUNOFF
   1  1.074500E+03  0.000000E+00  0.000000E+00  0.000000E+00  0.000000E+00   0.000000E+00          0.000000E+00      0.000000E+00

            GROUND WATER            SURFACE WATER        WATER          UZF INFIL.
 LAKE    INFLOW     OUTFLOW      INFLOW     OUTFLOW       USE        FROM LAKE
   1  0.0000E+00  0.0000E+00  0.0000E+00  0.0000E+00  0.0000E+00       0.0000E+00

      CONNECTED LAKE   TIME-STEP         STAGE-CHANGE          PERCENT
 LAKE    INFLUX      SURFACE AREA   TIME STEP  CUMULATIVE    DISCREPANCY
   1   0.0000E+00     0.0000E+00   0.0000E+00  0.0000E+00       0.000
 --------------------------------------------------------------------------------



            CUMULATIVE HYDROLOGIC BUDGET SUMMARIES FOR SIMULATED LAKES
     (ALL FLUID FLUXES ARE SUMS OF VOLUMES ADDED TO THE LAKE SINCE INITIAL TIME)
     ---------------------------------------------------------------------------
 LAKE       PRECIP       EVAP     SPECIFIED RUNOFF   COMPUTED RUNOFF   TOTAL RUNOFF
   1     0.0000E+00  0.0000E+00       0.0000E+00       0.0000E+00       0.0000E+00

            GROUND WATER            SURFACE WATER       UZF INFIL.
 LAKE    INFLOW     OUTFLOW      INFLOW     OUTFLOW     FROM LAKE
   1  0.0000E+00  0.0000E+00  0.0000E+00  0.0000E+00    0.0000E+00

         WATER    CONNECTED LAKE   CHANGE       PERCENT
 LAKE     USE         INFLUX       IN VOL.    DISCREPANCY
   1   0.0000E+00   0.0000E+00   0.0000E+00      0.000
 --------------------------------------------------------------------------------

 UBDSV3 SAVING "           GW ET" ON UNIT  61 AT TIME STEP    10, STRESS PERIOD   5
 UBDSV3 SAVING "    UZF RECHARGE" ON UNIT  61 AT TIME STEP    10, STRESS PERIOD   5
 UBDSV3 SAVING " SURFACE LEAKAGE" ON UNIT  61 AT TIME STEP    10, STRESS PERIOD   5
 UBDSV3 SAVING "       HORT+DUNN" ON UNIT  61 AT TIME STEP    10, STRESS PERIOD   5
 UBDSV3 SAVING "  STORAGE CHANGE" ON UNIT  61 AT TIME STEP    10, STRESS PERIOD   5


UNSATURATED ZONE PACKAGE VOLUMETRIC BUDGET FOR  TIME STEP    10 STRESS PERIOD    5
  ------------------------------------------------------------------------------



     CUMULATIVE VOLUMES      L**3       RATES FOR THIS TIME STEP      L**3/T
     ------------------                 ------------------------

           IN:                                      IN:
           ---                                      ---
        INFILTRATION =   920072513.6602          INFILTRATION =          42.1304

          OUT:                                     OUT:
          ----                                     ----
              UZF ET =   845972821.7951                UZF ET =          83.1970
        UZF RECHARGE =   323741714.7522          UZF RECHARGE =          60.9004

            IN - OUT =  -249642022.8872              IN - OUT =        -101.9669

          STORAGE:                                 STORAGE:
          --------                                 --------
      STORAGE CHANGE =  -249484577.8980        STORAGE CHANGE =        -101.8056

 PERCENT DISCREPANCY IS DIFFERENCE BETWEEN IN-OUT MINUS CHANGE IN STORAGE
 DIVIDED BY THE AVERAGE OF IN AND OUT TIMES 100

 PERCENT DISCREPANCY =          -0.00     PERCENT DISCREPANCY =          -0.11






1
  VOLUMETRIC BUDGET FOR ENTIRE MODEL AT END OF TIME STEP   10, STRESS PERIOD   5
  ------------------------------------------------------------------------------

     CUMULATIVE VOLUMES      L**3       RATES FOR THIS TIME STEP      L**3/T
     ------------------                 ------------------------

           IN:                                      IN:
           ---                                      ---
             STORAGE =    36827860.0000               STORAGE =           9.8062
       CONSTANT HEAD =           0.0000         CONSTANT HEAD =           0.0000
               WELLS =           0.0000                 WELLS =           0.0000
     HEAD DEP BOUNDS =     2633841.5000       HEAD DEP BOUNDS =           0.2135
      STREAM LEAKAGE =   611712064.0000        STREAM LEAKAGE =         230.1860
       LAKE  SEEPAGE =           0.0000         LAKE  SEEPAGE =           0.0000
        UZF RECHARGE =   323741664.0000          UZF RECHARGE =          60.9004
               GW ET =           0.0000                 GW ET =           0.0000
     SURFACE LEAKAGE =           0.0000       SURFACE LEAKAGE =           0.0000

            TOTAL IN =   974915456.0000              TOTAL IN =         301.1061

          OUT:                                     OUT:
          ----                                     ----
             STORAGE =   378427072.0000               STORAGE =         256.6627
       CONSTANT HEAD =           0.0000         CONSTANT HEAD =           0.0000
               WELLS =   210240000.0000                 WELLS =          30.0000
     HEAD DEP BOUNDS =     3555813.0000       HEAD DEP BOUNDS =           0.3022
      STREAM LEAKAGE =   229458928.0000        STREAM LEAKAGE =           0.0000
       LAKE  SEEPAGE =           0.0000         LAKE  SEEPAGE =           0.0000
        UZF RECHARGE =           0.0000          UZF RECHARGE =           0.0000
               GW ET =   152934944.0000                 GW ET =          12.5401
     SURFACE LEAKAGE =      280440.8125       SURFACE LEAKAGE =           1.6007

           TOTAL OUT =   974897280.0000             TOTAL OUT =         301.1056

            IN - OUT =       18176.0000              IN - OUT =       4.8828E-04

 PERCENT DISCREPANCY =           0.00     PERCENT DISCREPANCY =           0.00






         TIME SUMMARY AT END OF TIME STEP   10 IN STRESS PERIOD    5
                    SECONDS     MINUTES      HOURS       DAYS        YEARS
                    -----------------------------------------------------------
   TIME STEP LENGTH 1.75200E+05  2920.0      48.667      2.0278     5.55175E-03
 STRESS PERIOD TIME 1.75200E+06  29200.      486.67      20.278     5.55175E-02
         TOTAL TIME 1.22640E+07 2.04400E+05  3406.7      141.94     0.38862    
1
 
 SOLVING FOR HEAD 
                                                   Max.-Head-Change                         Max.-Flux-Residual
  Residual-Control   Outer-Iter.   Inner-Iter.     Column Row Layer    Maximum-Head-Change  Column Row Layer    Maximum-Flux-Residual          L2-NORM 
          0                 1           2             2    2     2       0.1543366490E+01       2    2    2         0.4162789800E+02      0.1002201602E+03
          0                 2           2             2    2     2      -0.1476017353E+00       4   13    2         0.4535967250E+01      0.8249346672E+01
          0                 3           2             4   13     2       0.1630906764E-01       4   13    2         0.3499126736E+00      0.5210150359E+00
          0                 4           1             4   13     2      -0.1472742192E-02       4   13    2        -0.3304411455E-01      0.3670961728E-01
          0                 5           1             4   13     2       0.7860157724E-04       4   13    2         0.1832724152E-02      0.1953925646E-02

    ------------------------------------------------
       NWT REQUIRED            5 OUTER ITERATIONS 
       AND A TOTAL OF          8 INNER ITERATIONS.
    ------------------------------------------------

 OUTPUT CONTROL FOR STRESS PERIOD    5   TIME STEP   11
    PRINT BUDGET
    SAVE BUDGET

            WELLS   PERIOD    5   STEP  11
 WELL      1   LAYER   2   ROW     6   COL     4   RATE    -3.00000    
 WELL      2   LAYER   2   ROW     6   COL     5   RATE    -3.00000    
 WELL      3   LAYER   2   ROW     7   COL     4   RATE    -3.00000    
 WELL      4   LAYER   2   ROW     7   COL     5   RATE    -3.00000    
 WELL      5   LAYER   2   ROW     8   COL     4   RATE    -3.00000    
 WELL      6   LAYER   2   ROW     8   COL     5   RATE    -3.00000    
 WELL      7   LAYER   2   ROW     9   COL     4   RATE    -3.00000    
 WELL      8   LAYER   2   ROW     9   COL     5   RATE    -3.00000    
 WELL      9   LAYER   2   ROW    10   COL     4   RATE    -3.00000    
 WELL     10   LAYER   2   ROW    10   COL     5   RATE    -3.00000    

  HEAD DEP BOUNDS   PERIOD    5   STEP    11
 BOUNDARY      1   LAYER   2   ROW    13   COL     1   RATE   -0.323269    
 BOUNDARY      2   LAYER   2   ROW    14   COL     9   RATE    0.213464    



 STREAM LISTING     PERIOD      5   STEP       11

 LAYER ROW COL. STREAM  RCH.  FLOW INTO     FLOW TO   FLOW OUT OF   OVRLND.     DIRECT     STREAM       STREAM     STREAM     STREAM   STREAMBED  STREAMBED
                SEG.NO.  NO.  STRM. RCH.    AQUIFER    STRM. RCH.    RUNOFF     PRECIP       ET          HEAD       DEPTH      WIDTH   CONDCTNC.   GRADIENT

   2    1    1     1     1    2.5200E+03  2.3467E+01   2.4965E+03  0.000E+00  0.000E+00  0.000E+00  1.09903E+03  5.979E+00  7.390E+01  3.326E+00  2.352E+00
   2    2    2     1     2    2.4965E+03  4.6049E+01   2.4505E+03  0.000E+00  0.000E+00  0.000E+00  1.09401E+03  5.948E+00  7.352E+01  5.146E+00  2.983E+00
   2    3    3     1     3    2.4505E+03  3.9046E+01   2.4114E+03  0.000E+00  0.000E+00  0.000E+00  1.08833E+03  5.910E+00  7.304E+01  4.382E+00  2.970E+00
   2    3    4     1     4    2.4114E+03  3.5770E+01   2.3757E+03  0.000E+00  0.000E+00  0.000E+00  1.08328E+03  5.876E+00  7.261E+01  4.030E+00  2.959E+00
   2    4    5     2     1    2.0000E+03  0.0000E+00   2.0000E+03  0.000E+00  0.000E+00  0.000E+00  1.08864E+03  1.670E+01  1.200E+01  7.800E-01  6.567E+00
   2    5    6     2     2    2.0000E+03  1.1780E+01   1.9882E+03  0.000E+00  0.000E+00  0.000E+00  1.08314E+03  1.663E+01  1.200E+01  6.000E-01  6.544E+00
   2    6    6     2     3    1.9882E+03  1.1744E+01   1.9765E+03  0.000E+00  0.000E+00  0.000E+00  1.07837E+03  1.657E+01  1.200E+01  6.000E-01  6.525E+00
   2    7    6     2     4    1.9765E+03  1.1709E+01   1.9648E+03  0.000E+00  0.000E+00  0.000E+00  1.07359E+03  1.651E+01  1.200E+01  6.000E-01  6.505E+00
   2    8    6     2     5    1.9648E+03  1.1673E+01   1.9531E+03  0.000E+00  0.000E+00  0.000E+00  1.06881E+03  1.646E+01  1.200E+01  6.000E-01  6.485E+00
   2    3    5     3     1    1.0000E+01  2.8252E+00   7.1748E+00  0.000E+00  0.000E+00  0.000E+00  1.07555E+03  1.909E+00  9.636E+00  7.227E-01  1.955E+00
   2    3    6     3     2    7.1748E+00  2.4905E+00   4.6843E+00  0.000E+00  0.000E+00  0.000E+00  1.07264E+03  1.727E+00  8.909E+00  6.682E-01  1.864E+00
   2    3    7     3     3    4.6843E+00  1.9718E+00   2.7125E+00  0.000E+00  0.000E+00  0.000E+00  1.06987E+03  1.555E+00  8.218E+00  5.547E-01  1.777E+00
   2    4    8     3     4    2.7125E+00  2.2567E+00   4.5579E-01  0.000E+00  0.000E+00  0.000E+00  1.06682E+03  1.364E+00  7.455E+00  6.709E-01  1.682E+00
   2    5    8     3     5    4.5579E-01  4.5579E-01   0.0000E+00  0.000E+00  0.000E+00  0.000E+00  1.06362E+03  0.000E+00  6.655E+00  4.991E-01  1.582E+00
   2    6    8     3     6    0.0000E+00  0.0000E+00   0.0000E+00  0.000E+00  0.000E+00  0.000E+00  1.06055E+03  0.000E+00  6.145E+00  1.844E-01  1.000E+00
   2    5   10     4     1    1.0000E+01  9.0525E-01   9.0947E+00  0.000E+00  0.000E+00  0.000E+00  1.07835E+03  6.210E-01  1.000E+01  2.500E-01  1.207E+00
   2    5    9     4     2    9.0947E+00  1.7835E+00   7.3113E+00  0.000E+00  0.000E+00  0.000E+00  1.07148E+03  5.670E-01  1.000E+01  5.000E-01  1.189E+00
   2    6    8     4     3    7.3113E+00  1.2257E+00   6.0855E+00  0.000E+00  0.000E+00  0.000E+00  1.06368E+03  5.021E-01  1.000E+01  3.500E-01  1.167E+00
   2    6    8     5     1    6.0855E+00  1.4716E+00   4.6139E+00  0.000E+00  0.000E+00  0.000E+00  1.05854E+03  5.396E-01  1.039E+01  4.158E-01  1.180E+00
   2    7    7     5     2    4.6139E+00  1.4897E+00   3.1242E+00  0.000E+00  0.000E+00  0.000E+00  1.05398E+03  4.817E-01  8.557E+00  4.279E-01  1.161E+00
   2    8    7     5     3    3.1242E+00  8.2855E-01   2.2957E+00  0.000E+00  0.000E+00  0.000E+00  1.04968E+03  4.253E-01  6.911E+00  2.419E-01  1.142E+00
   2    8    6     5     4    2.2957E+00  4.9455E-01   1.8011E+00  0.000E+00  0.000E+00  0.000E+00  1.04664E+03  3.856E-01  5.843E+00  1.461E-01  1.129E+00
   2    9    6     6     1    1.9549E+03  1.1753E+01   1.9431E+03  0.000E+00  0.000E+00  0.000E+00  1.05932E+03  1.659E+01  1.200E+01  6.000E-01  6.529E+00
   2   10    7     6     2    1.9431E+03  1.1717E+01   1.9314E+03  0.000E+00  0.000E+00  0.000E+00  1.05471E+03  1.653E+01  1.200E+01  6.000E-01  6.509E+00
   2   11    7     6     3    1.9314E+03  1.1680E+01   1.9197E+03  0.000E+00  0.000E+00  0.000E+00  1.05010E+03  1.647E+01  1.200E+01  6.000E-01  6.489E+00
   2   12    7     6     4    1.9197E+03  1.0374E+01   1.9094E+03  0.000E+00  0.000E+00  0.000E+00  1.04550E+03  1.641E+01  1.200E+01  6.000E-01  5.764E+00
   2   13    7     6     5    1.9094E+03  3.1025E+00   1.9063E+03  0.000E+00  0.000E+00  0.000E+00  1.04228E+03  1.638E+01  1.200E+01  2.400E-01  4.309E+00
   2   14    9     7     1    1.5000E+02  2.6964E+00   1.4730E+02  0.000E+00  0.000E+00  0.000E+00  1.03986E+03  2.284E+00  5.528E+01  5.591E+00  1.607E-01
   2   13    8     7     2    1.4730E+02  3.6718E+00   1.4363E+02  0.000E+00  0.000E+00  0.000E+00  1.03477E+03  2.267E+00  5.520E+01  6.141E+00  1.993E-01
   2   13    7     7     3    1.4363E+02  1.7552E+00   1.4188E+02  0.000E+00  0.000E+00  0.000E+00  1.02967E+03  2.253E+00  5.514E+01  5.576E+00  1.049E-01
   2   13    6     8     1    2.0481E+03  2.7647E+01   2.0262E+03  5.730E+00  0.000E+00  0.000E+00  1.02942E+03  7.542E+00  7.295E+01  7.565E+00  1.218E+00
   2   13    5     8     2    2.0262E+03  2.2464E+01   2.0095E+03  5.730E+00  0.000E+00  0.000E+00  1.02314E+03  7.511E+00  7.282E+01  7.551E+00  9.917E-01
   2   13    4     8     3    2.0095E+03  1.7141E+01   1.9981E+03  5.730E+00  0.000E+00  0.000E+00  1.01686E+03  7.488E+00  7.273E+01  7.540E+00  7.577E-01
   2   13    3     8     4    1.9981E+03  1.6456E+01   1.9874E+03  5.730E+00  0.000E+00  0.000E+00  1.01060E+03  7.470E+00  7.265E+01  7.532E+00  7.283E-01
   2   13    2     8     5    1.9874E+03  1.8839E+01   1.9743E+03  5.730E+00  0.000E+00  0.000E+00  1.00433E+03  7.451E+00  7.257E+01  7.523E+00  8.347E-01
   2   13    1     8     6    1.9743E+03  1.2626E+01   1.9651E+03  3.438E+00  0.000E+00  0.000E+00  9.99308E+02  7.433E+00  7.249E+01  4.509E+00  9.335E-01
   2    4    5     9     1    3.6567E+02  0.0000E+00   3.6567E+02  0.000E+00  0.000E+00  0.000E+00  1.06045E+03  4.467E-01  2.000E+01  2.000E-03  1.149E+00
   2    4    5    10     1    0.0000E+00  0.0000E+00   0.0000E+00  0.000E+00  0.000E+00  0.000E+00  1.08000E+03  0.000E+00  2.000E+01  2.000E-03  1.000E+00





     0  LAKE CELLS ARE DRY.

 PERIOD     5     TIME STEP    11     TIME STEP LENGTH  1.7520E+05
 PERIOD TIME  1.9272E+06     TOTAL SIMULATION TIME  1.2439E+07


                 HYDROLOGIC BUDGET SUMMARIES FOR SIMULATED LAKES
     (ALL FLUID FLUXES ARE VOLUMES ADDED TO THE LAKE DURING PRESENT TIME STEP)
     ----------------------------------------------------------------------------------------
 LAKE    STAGE         VOLUME     VOL. CHANGE      PRECIP     EVAPORATION    SPECIFIED RUNOFF     COMPUTED RUNOFF    TOTAL RUNOFF
   1  1.080961E+03  5.541302E+07  5.541302E+07  0.000000E+00  1.191511E+05   0.000000E+00          0.000000E+00      0.000000E+00

            GROUND WATER            SURFACE WATER        WATER          UZF INFIL.
 LAKE    INFLOW     OUTFLOW      INFLOW     OUTFLOW       USE        FROM LAKE
   1  0.0000E+00  0.0000E+00  6.4065E+07  0.0000E+00  0.0000E+00       8.5326E+06

      CONNECTED LAKE   TIME-STEP         STAGE-CHANGE          PERCENT
 LAKE    INFLUX      SURFACE AREA   TIME STEP  CUMULATIVE    DISCREPANCY
   1   0.0000E+00     1.7002E+07   6.4607E+00  6.4607E+00       0.000
 --------------------------------------------------------------------------------



            CUMULATIVE HYDROLOGIC BUDGET SUMMARIES FOR SIMULATED LAKES
     (ALL FLUID FLUXES ARE SUMS OF VOLUMES ADDED TO THE LAKE SINCE INITIAL TIME)
     ---------------------------------------------------------------------------
 LAKE       PRECIP       EVAP     SPECIFIED RUNOFF   COMPUTED RUNOFF   TOTAL RUNOFF
   1     0.0000E+00  1.1915E+05       0.0000E+00       0.0000E+00       0.0000E+00

            GROUND WATER            SURFACE WATER       UZF INFIL.
 LAKE    INFLOW     OUTFLOW      INFLOW     OUTFLOW     FROM LAKE
   1  0.0000E+00  0.0000E+00  6.4065E+07  0.0000E+00    8.5326E+06

         WATER    CONNECTED LAKE   CHANGE       PERCENT
 LAKE     USE         INFLUX       IN VOL.    DISCREPANCY
   1   0.0000E+00   0.0000E+00   5.5413E+07      0.000
 --------------------------------------------------------------------------------

 UBDSV3 SAVING "           GW ET" ON UNIT  61 AT TIME STEP    11, STRESS PERIOD   5
 UBDSV3 SAVING "    UZF RECHARGE" ON UNIT  61 AT TIME STEP    11, STRESS PERIOD   5
 UBDSV3 SAVING " SURFACE LEAKAGE" ON UNIT  61 AT TIME STEP    11, STRESS PERIOD   5
 UBDSV3 SAVING "       HORT+DUNN" ON UNIT  61 AT TIME STEP    11, STRESS PERIOD   5
 UBDSV3 SAVING "  STORAGE CHANGE" ON UNIT  61 AT TIME STEP    11, STRESS PERIOD   5


UNSATURATED ZONE PACKAGE VOLUMETRIC BUDGET FOR  TIME STEP    11 STRESS PERIOD    5
  ------------------------------------------------------------------------------



     CUMULATIVE VOLUMES      L**3       RATES FOR THIS TIME STEP      L**3/T
     ------------------                 ------------------------

           IN:                                      IN:
           ---                                      ---
        INFILTRATION =   935894551.5549          INFILTRATION =          90.3084

          OUT:                                     OUT:
          ----                                     ----
              UZF ET =   860581775.9506                UZF ET =          83.3844
        UZF RECHARGE =   334718357.6516          UZF RECHARGE =          62.6521

            IN - OUT =  -259405582.0473              IN - OUT =         -55.7281

          STORAGE:                                 STORAGE:
          --------                                 --------
      STORAGE CHANGE =  -259205685.1138        STORAGE CHANGE =         -55.4858

 PERCENT DISCREPANCY IS DIFFERENCE BETWEEN IN-OUT MINUS CHANGE IN STORAGE
 DIVIDED BY THE AVERAGE OF IN AND OUT TIMES 100

 PERCENT DISCREPANCY =          -0.00     PERCENT DISCREPANCY =          -0.17






1
  VOLUMETRIC BUDGET FOR ENTIRE MODEL AT END OF TIME STEP   11, STRESS PERIOD   5
  ------------------------------------------------------------------------------

     CUMULATIVE VOLUMES      L**3       RATES FOR THIS TIME STEP      L**3/T
     ------------------                 ------------------------

           IN:                                      IN:
           ---                                      ---
             STORAGE =    38042180.0000               STORAGE =           6.9310
       CONSTANT HEAD =           0.0000         CONSTANT HEAD =           0.0000
               WELLS =           0.0000                 WELLS =           0.0000
     HEAD DEP BOUNDS =     2671240.2500       HEAD DEP BOUNDS =           0.2135
      STREAM LEAKAGE =   678526528.0000        STREAM LEAKAGE =         381.3611
       LAKE  SEEPAGE =           0.0000         LAKE  SEEPAGE =           0.0000
        UZF RECHARGE =   334718304.0000          UZF RECHARGE =          62.6521
               GW ET =           0.0000                 GW ET =           0.0000
     SURFACE LEAKAGE =           0.0000       SURFACE LEAKAGE =           0.0000

            TOTAL IN =  1053958272.0000              TOTAL IN =         451.1577

          OUT:                                     OUT:
          ----                                     ----
             STORAGE =   447048320.0000               STORAGE =         391.6737
       CONSTANT HEAD =           0.0000         CONSTANT HEAD =           0.0000
               WELLS =   215496000.0000                 WELLS =          30.0000
     HEAD DEP BOUNDS =     3612449.7500       HEAD DEP BOUNDS =           0.3233
      STREAM LEAKAGE =   229458928.0000        STREAM LEAKAGE =           0.0000
       LAKE  SEEPAGE =           0.0000         LAKE  SEEPAGE =           0.0000
        UZF RECHARGE =           0.0000          UZF RECHARGE =           0.0000
               GW ET =   155227904.0000                 GW ET =          13.0877
     SURFACE LEAKAGE =     5790007.0000       SURFACE LEAKAGE =          31.4473

           TOTAL OUT =  1056633664.0000             TOTAL OUT =         466.5319

            IN - OUT =    -2675392.0000              IN - OUT =         -15.3742

 PERCENT DISCREPANCY =          -0.25     PERCENT DISCREPANCY =          -3.35






         TIME SUMMARY AT END OF TIME STEP   11 IN STRESS PERIOD    5
                    SECONDS     MINUTES      HOURS       DAYS        YEARS
                    -----------------------------------------------------------
   TIME STEP LENGTH 1.75200E+05  2920.0      48.667      2.0278     5.55175E-03
 STRESS PERIOD TIME 1.92720E+06  32120.      535.33      22.306     6.10693E-02
         TOTAL TIME 1.24392E+07 2.07320E+05  3455.3      143.97     0.39417    
1
 
 SOLVING FOR HEAD 
                                                   Max.-Head-Change                         Max.-Flux-Residual
  Residual-Control   Outer-Iter.   Inner-Iter.     Column Row Layer    Maximum-Head-Change  Column Row Layer    Maximum-Flux-Residual          L2-NORM 
          0                 1           2             2    2     2       0.1487709870E+01       2    2    2         0.4010451641E+02      0.8268484267E+02
          0                 2           2             1   13     2      -0.1540192834E+00       1   13    2        -0.1083066695E+02      0.1272276508E+02
          0                 3           2             5   13     2       0.2573770668E-01       5   13    2         0.5211466691E+00      0.1108319277E+01
          0                 4           1             6   13     2       0.1163716394E-02       6   13    2         0.4390688564E-01      0.7622656937E-01
          0                 5           1             5   13     2      -0.1008602485E-03       3   13    2        -0.2243590658E-02      0.4169082640E-02

    ------------------------------------------------
       NWT REQUIRED            5 OUTER ITERATIONS 
       AND A TOTAL OF          8 INNER ITERATIONS.
    ------------------------------------------------

 OUTPUT CONTROL FOR STRESS PERIOD    5   TIME STEP   12
    PRINT BUDGET
    SAVE BUDGET

            WELLS   PERIOD    5   STEP  12
 WELL      1   LAYER   2   ROW     6   COL     4   RATE    -3.00000    
 WELL      2   LAYER   2   ROW     6   COL     5   RATE    -3.00000    
 WELL      3   LAYER   2   ROW     7   COL     4   RATE    -3.00000    
 WELL      4   LAYER   2   ROW     7   COL     5   RATE    -3.00000    
 WELL      5   LAYER   2   ROW     8   COL     4   RATE    -3.00000    
 WELL      6   LAYER   2   ROW     8   COL     5   RATE    -3.00000    
 WELL      7   LAYER   2   ROW     9   COL     4   RATE    -3.00000    
 WELL      8   LAYER   2   ROW     9   COL     5   RATE    -3.00000    
 WELL      9   LAYER   2   ROW    10   COL     4   RATE    -3.00000    
 WELL     10   LAYER   2   ROW    10   COL     5   RATE    -3.00000    

  HEAD DEP BOUNDS   PERIOD    5   STEP    12
 BOUNDARY      1   LAYER   2   ROW    13   COL     1   RATE   -0.335866    
 BOUNDARY      2   LAYER   2   ROW    14   COL     9   RATE    0.213433    



 STREAM LISTING     PERIOD      5   STEP       12

 LAYER ROW COL. STREAM  RCH.  FLOW INTO     FLOW TO   FLOW OUT OF   OVRLND.     DIRECT     STREAM       STREAM     STREAM     STREAM   STREAMBED  STREAMBED
                SEG.NO.  NO.  STRM. RCH.    AQUIFER    STRM. RCH.    RUNOFF     PRECIP       ET          HEAD       DEPTH      WIDTH   CONDCTNC.   GRADIENT

   2    1    1     1     1    2.5200E+03  2.1315E+01   2.4987E+03  0.000E+00  0.000E+00  0.000E+00  1.09903E+03  5.980E+00  7.391E+01  3.326E+00  2.136E+00
   2    2    2     1     2    2.4987E+03  4.6074E+01   2.4526E+03  0.000E+00  0.000E+00  0.000E+00  1.09401E+03  5.950E+00  7.354E+01  5.148E+00  2.983E+00
   2    3    3     1     3    2.4526E+03  3.9067E+01   2.4135E+03  0.000E+00  0.000E+00  0.000E+00  1.08833E+03  5.912E+00  7.306E+01  4.384E+00  2.971E+00
   2    3    4     1     4    2.4135E+03  3.5790E+01   2.3778E+03  0.000E+00  0.000E+00  0.000E+00  1.08329E+03  5.878E+00  7.264E+01  4.031E+00  2.959E+00
   2    4    5     2     1    2.0378E+03  0.0000E+00   2.0378E+03  0.000E+00  0.000E+00  0.000E+00  1.08882E+03  1.689E+01  1.200E+01  7.800E-01  6.630E+00
   2    5    6     2     2    2.0378E+03  1.1893E+01   2.0259E+03  0.000E+00  0.000E+00  0.000E+00  1.08333E+03  1.682E+01  1.200E+01  6.000E-01  6.607E+00
   2    6    6     2     3    2.0259E+03  1.1858E+01   2.0141E+03  0.000E+00  0.000E+00  0.000E+00  1.07856E+03  1.676E+01  1.200E+01  6.000E-01  6.588E+00
   2    7    6     2     4    2.0141E+03  1.1822E+01   2.0022E+03  0.000E+00  0.000E+00  0.000E+00  1.07378E+03  1.670E+01  1.200E+01  6.000E-01  6.568E+00
   2    8    6     2     5    2.0022E+03  1.1786E+01   1.9904E+03  0.000E+00  0.000E+00  0.000E+00  1.06900E+03  1.664E+01  1.200E+01  6.000E-01  6.548E+00
   2    3    5     3     1    1.0000E+01  2.8252E+00   7.1748E+00  0.000E+00  0.000E+00  0.000E+00  1.07555E+03  1.909E+00  9.636E+00  7.227E-01  1.955E+00
   2    3    6     3     2    7.1748E+00  2.4905E+00   4.6843E+00  0.000E+00  0.000E+00  0.000E+00  1.07264E+03  1.727E+00  8.909E+00  6.682E-01  1.864E+00
   2    3    7     3     3    4.6843E+00  1.9718E+00   2.7125E+00  0.000E+00  0.000E+00  0.000E+00  1.06987E+03  1.555E+00  8.218E+00  5.547E-01  1.777E+00
   2    4    8     3     4    2.7125E+00  2.2567E+00   4.5579E-01  0.000E+00  0.000E+00  0.000E+00  1.06682E+03  1.364E+00  7.455E+00  6.709E-01  1.682E+00
   2    5    8     3     5    4.5579E-01  4.5579E-01   0.0000E+00  0.000E+00  0.000E+00  0.000E+00  1.06362E+03  0.000E+00  6.655E+00  4.991E-01  1.582E+00
   2    6    8     3     6    0.0000E+00  0.0000E+00   0.0000E+00  0.000E+00  0.000E+00  0.000E+00  1.06055E+03  0.000E+00  6.145E+00  1.844E-01  1.000E+00
   2    5   10     4     1    1.0000E+01  9.0525E-01   9.0947E+00  0.000E+00  0.000E+00  0.000E+00  1.07835E+03  6.210E-01  1.000E+01  2.500E-01  1.207E+00
   2    5    9     4     2    9.0947E+00  1.7835E+00   7.3113E+00  0.000E+00  0.000E+00  0.000E+00  1.07148E+03  5.670E-01  1.000E+01  5.000E-01  1.189E+00
   2    6    8     4     3    7.3113E+00  1.2257E+00   6.0855E+00  0.000E+00  0.000E+00  0.000E+00  1.06368E+03  5.021E-01  1.000E+01  3.500E-01  1.167E+00
   2    6    8     5     1    6.0855E+00  1.4716E+00   4.6139E+00  0.000E+00  0.000E+00  0.000E+00  1.05854E+03  5.396E-01  1.039E+01  4.158E-01  1.180E+00
   2    7    7     5     2    4.6139E+00  1.4897E+00   3.1242E+00  0.000E+00  0.000E+00  0.000E+00  1.05398E+03  4.817E-01  8.557E+00  4.279E-01  1.161E+00
   2    8    7     5     3    3.1242E+00  8.2855E-01   2.2957E+00  0.000E+00  0.000E+00  0.000E+00  1.04968E+03  4.253E-01  6.911E+00  2.419E-01  1.142E+00
   2    8    6     5     4    2.2957E+00  4.9455E-01   1.8011E+00  0.000E+00  0.000E+00  0.000E+00  1.04664E+03  3.856E-01  5.843E+00  1.461E-01  1.129E+00
   2    9    6     6     1    1.9922E+03  1.1867E+01   1.9804E+03  0.000E+00  0.000E+00  0.000E+00  1.05951E+03  1.678E+01  1.200E+01  6.000E-01  6.593E+00
   2   10    7     6     2    1.9804E+03  1.1831E+01   1.9685E+03  0.000E+00  0.000E+00  0.000E+00  1.05490E+03  1.672E+01  1.200E+01  6.000E-01  6.573E+00
   2   11    7     6     3    1.9685E+03  1.1794E+01   1.9568E+03  0.000E+00  0.000E+00  0.000E+00  1.05029E+03  1.666E+01  1.200E+01  6.000E-01  6.552E+00
   2   12    7     6     4    1.9568E+03  1.0290E+01   1.9465E+03  0.000E+00  0.000E+00  0.000E+00  1.04569E+03  1.660E+01  1.200E+01  6.000E-01  5.717E+00
   2   13    7     6     5    1.9465E+03  3.1176E+00   1.9433E+03  0.000E+00  0.000E+00  0.000E+00  1.04248E+03  1.657E+01  1.200E+01  2.400E-01  4.330E+00
   2   14    9     7     1    1.5000E+02  2.6920E+00   1.4731E+02  0.000E+00  0.000E+00  0.000E+00  1.03986E+03  2.284E+00  5.528E+01  5.591E+00  1.605E-01
   2   13    8     7     2    1.4731E+02  3.6508E+00   1.4366E+02  0.000E+00  0.000E+00  0.000E+00  1.03477E+03  2.267E+00  5.520E+01  6.141E+00  1.982E-01
   2   13    7     7     3    1.4366E+02  1.0520E+00   1.4261E+02  0.000E+00  0.000E+00  0.000E+00  1.02967E+03  2.255E+00  5.515E+01  5.577E+00  6.288E-02
   2   13    6     8     1    2.0860E+03  2.3147E+01   2.0734E+03  1.055E+01  0.000E+00  0.000E+00  1.02948E+03  7.609E+00  7.324E+01  7.597E+00  1.016E+00
   2   13    5     8     2    2.0734E+03  1.7267E+01   2.0666E+03  1.055E+01  0.000E+00  0.000E+00  1.02322E+03  7.594E+00  7.317E+01  7.590E+00  7.584E-01
   2   13    4     8     3    2.0666E+03  1.5205E+01   2.0620E+03  1.055E+01  0.000E+00  0.000E+00  1.01696E+03  7.585E+00  7.314E+01  7.586E+00  6.681E-01
   2   13    3     8     4    2.0620E+03  1.4801E+01   2.0577E+03  1.055E+01  0.000E+00  0.000E+00  1.01070E+03  7.578E+00  7.311E+01  7.582E+00  6.507E-01
   2   13    2     8     5    2.0577E+03  1.5136E+01   2.0531E+03  1.055E+01  0.000E+00  0.000E+00  1.00445E+03  7.571E+00  7.308E+01  7.579E+00  6.657E-01
   2   13    1     8     6    2.0531E+03  1.1813E+01   2.0476E+03  6.328E+00  0.000E+00  0.000E+00  9.99438E+02  7.563E+00  7.304E+01  4.545E+00  8.664E-01
   2    4    5     9     1    3.6775E+02  0.0000E+00   3.6775E+02  0.000E+00  0.000E+00  0.000E+00  1.06045E+03  4.482E-01  2.000E+01  2.000E-03  1.149E+00
   2    4    5    10     1    3.7811E+01  0.0000E+00   3.7811E+01  0.000E+00  0.000E+00  0.000E+00  1.08016E+03  1.643E-01  2.000E+01  2.000E-03  1.055E+00





     0  LAKE CELLS ARE DRY.

 PERIOD     5     TIME STEP    12     TIME STEP LENGTH  1.7520E+05
 PERIOD TIME  2.1024E+06     TOTAL SIMULATION TIME  1.2614E+07


                 HYDROLOGIC BUDGET SUMMARIES FOR SIMULATED LAKES
     (ALL FLUID FLUXES ARE VOLUMES ADDED TO THE LAKE DURING PRESENT TIME STEP)
     ----------------------------------------------------------------------------------------
 LAKE    STAGE         VOLUME     VOL. CHANGE      PRECIP     EVAPORATION    SPECIFIED RUNOFF     COMPUTED RUNOFF    TOTAL RUNOFF
   1  1.083163E+03  9.948452E+07  4.407150E+07  0.000000E+00  1.596344E+05   0.000000E+00          0.000000E+00      0.000000E+00

            GROUND WATER            SURFACE WATER        WATER          UZF INFIL.
 LAKE    INFLOW     OUTFLOW      INFLOW     OUTFLOW       USE        FROM LAKE
   1  0.0000E+00  0.0000E+00  6.4430E+07  6.6246E+06  0.0000E+00       1.3575E+07

      CONNECTED LAKE   TIME-STEP         STAGE-CHANGE          PERCENT
 LAKE    INFLUX      SURFACE AREA   TIME STEP  CUMULATIVE    DISCREPANCY
   1   0.0000E+00     2.2779E+07   2.2027E+00  8.6633E+00       0.000
 --------------------------------------------------------------------------------



            CUMULATIVE HYDROLOGIC BUDGET SUMMARIES FOR SIMULATED LAKES
     (ALL FLUID FLUXES ARE SUMS OF VOLUMES ADDED TO THE LAKE SINCE INITIAL TIME)
     ---------------------------------------------------------------------------
 LAKE       PRECIP       EVAP     SPECIFIED RUNOFF   COMPUTED RUNOFF   TOTAL RUNOFF
   1     0.0000E+00  2.7879E+05       0.0000E+00       0.0000E+00       0.0000E+00

            GROUND WATER            SURFACE WATER       UZF INFIL.
 LAKE    INFLOW     OUTFLOW      INFLOW     OUTFLOW     FROM LAKE
   1  0.0000E+00  0.0000E+00  1.2850E+08  6.6246E+06    2.2107E+07

         WATER    CONNECTED LAKE   CHANGE       PERCENT
 LAKE     USE         INFLUX       IN VOL.    DISCREPANCY
   1   0.0000E+00   0.0000E+00   9.9485E+07      0.000
 --------------------------------------------------------------------------------

 UBDSV3 SAVING "           GW ET" ON UNIT  61 AT TIME STEP    12, STRESS PERIOD   5
 UBDSV3 SAVING "    UZF RECHARGE" ON UNIT  61 AT TIME STEP    12, STRESS PERIOD   5
 UBDSV3 SAVING " SURFACE LEAKAGE" ON UNIT  61 AT TIME STEP    12, STRESS PERIOD   5
 UBDSV3 SAVING "       HORT+DUNN" ON UNIT  61 AT TIME STEP    12, STRESS PERIOD   5
 UBDSV3 SAVING "  STORAGE CHANGE" ON UNIT  61 AT TIME STEP    12, STRESS PERIOD   5


UNSATURATED ZONE PACKAGE VOLUMETRIC BUDGET FOR  TIME STEP    12 STRESS PERIOD    5
  ------------------------------------------------------------------------------



     CUMULATIVE VOLUMES      L**3       RATES FOR THIS TIME STEP      L**3/T
     ------------------                 ------------------------

           IN:                                      IN:
           ---                                      ---
        INFILTRATION =   956732693.7883          INFILTRATION =         118.9392

          OUT:                                     OUT:
          ----                                     ----
              UZF ET =   875146207.7035                UZF ET =          83.1303
        UZF RECHARGE =   344835373.1168          UZF RECHARGE =          57.7455

            IN - OUT =  -263248887.0320              IN - OUT =         -21.9367

          STORAGE:                                 STORAGE:
          --------                                 --------
      STORAGE CHANGE =  -263014953.6084        STORAGE CHANGE =         -21.7424

 PERCENT DISCREPANCY IS DIFFERENCE BETWEEN IN-OUT MINUS CHANGE IN STORAGE
 DIVIDED BY THE AVERAGE OF IN AND OUT TIMES 100

 PERCENT DISCREPANCY =          -0.00     PERCENT DISCREPANCY =          -0.14






1
  VOLUMETRIC BUDGET FOR ENTIRE MODEL AT END OF TIME STEP   12, STRESS PERIOD   5
  ------------------------------------------------------------------------------

     CUMULATIVE VOLUMES      L**3       RATES FOR THIS TIME STEP      L**3/T
     ------------------                 ------------------------

           IN:                                      IN:
           ---                                      ---
             STORAGE =    39008684.0000               STORAGE =           5.5166
       CONSTANT HEAD =           0.0000         CONSTANT HEAD =           0.0000
               WELLS =           0.0000                 WELLS =           0.0000
     HEAD DEP BOUNDS =     2708633.7500       HEAD DEP BOUNDS =           0.2134
      STREAM LEAKAGE =   741855872.0000        STREAM LEAKAGE =         361.4689
       LAKE  SEEPAGE =           0.0000         LAKE  SEEPAGE =           0.0000
        UZF RECHARGE =   344835328.0000          UZF RECHARGE =          57.7455
               GW ET =           0.0000                 GW ET =           0.0000
     SURFACE LEAKAGE =           0.0000       SURFACE LEAKAGE =           0.0000

            TOTAL IN =  1128408576.0000              TOTAL IN =         424.9444

          OUT:                                     OUT:
          ----                                     ----
             STORAGE =   506305440.0000               STORAGE =         338.2255
       CONSTANT HEAD =           0.0000         CONSTANT HEAD =           0.0000
               WELLS =   220752000.0000                 WELLS =          30.0000
     HEAD DEP BOUNDS =     3671293.5000       HEAD DEP BOUNDS =           0.3359
      STREAM LEAKAGE =   229458928.0000        STREAM LEAKAGE =           0.0000
       LAKE  SEEPAGE =           0.0000         LAKE  SEEPAGE =           0.0000
        UZF RECHARGE =           0.0000          UZF RECHARGE =           0.0000
               GW ET =   157618304.0000                 GW ET =          13.6439
     SURFACE LEAKAGE =    15998434.0000       SURFACE LEAKAGE =          58.2673

           TOTAL OUT =  1133804416.0000             TOTAL OUT =         440.4725

            IN - OUT =    -5395840.0000              IN - OUT =         -15.5281

 PERCENT DISCREPANCY =          -0.48     PERCENT DISCREPANCY =          -3.59






         TIME SUMMARY AT END OF TIME STEP   12 IN STRESS PERIOD    5
                    SECONDS     MINUTES      HOURS       DAYS        YEARS
                    -----------------------------------------------------------
   TIME STEP LENGTH 1.75200E+05  2920.0      48.667      2.0278     5.55175E-03
 STRESS PERIOD TIME 2.10240E+06  35040.      584.00      24.333     6.66210E-02
         TOTAL TIME 1.26144E+07 2.10240E+05  3504.0      146.00     0.39973    
1
 
 SOLVING FOR HEAD 
                                                   Max.-Head-Change                         Max.-Flux-Residual
  Residual-Control   Outer-Iter.   Inner-Iter.     Column Row Layer    Maximum-Head-Change  Column Row Layer    Maximum-Flux-Residual          L2-NORM 
          0                 1           2             2    2     2       0.1434899065E+01       2    2    2         0.3865890208E+02      0.7350371940E+02
          0                 2           2             2    2     2      -0.1372355372E+00       6   13    2        -0.4074707859E+01      0.7745277897E+01
          0                 3           2             5   13     2       0.1377412923E+00       6   13    2         0.2874501913E+01      0.6491960412E+01
          0                 4           2             5   13     2      -0.1023714520E-01       5   13    2        -0.2054240461E+00      0.4180259548E+00
          0                 5           1             5   13     2       0.4330844817E-03       5   13    2         0.9262210770E-02      0.1451374907E-01

    ------------------------------------------------
       NWT REQUIRED            5 OUTER ITERATIONS 
       AND A TOTAL OF          9 INNER ITERATIONS.
    ------------------------------------------------

 OUTPUT CONTROL FOR STRESS PERIOD    5   TIME STEP   13
    PRINT BUDGET
    SAVE BUDGET

            WELLS   PERIOD    5   STEP  13
 WELL      1   LAYER   2   ROW     6   COL     4   RATE    -3.00000    
 WELL      2   LAYER   2   ROW     6   COL     5   RATE    -3.00000    
 WELL      3   LAYER   2   ROW     7   COL     4   RATE    -3.00000    
 WELL      4   LAYER   2   ROW     7   COL     5   RATE    -3.00000    
 WELL      5   LAYER   2   ROW     8   COL     4   RATE    -3.00000    
 WELL      6   LAYER   2   ROW     8   COL     5   RATE    -3.00000    
 WELL      7   LAYER   2   ROW     9   COL     4   RATE    -3.00000    
 WELL      8   LAYER   2   ROW     9   COL     5   RATE    -3.00000    
 WELL      9   LAYER   2   ROW    10   COL     4   RATE    -3.00000    
 WELL     10   LAYER   2   ROW    10   COL     5   RATE    -3.00000    

  HEAD DEP BOUNDS   PERIOD    5   STEP    13
 BOUNDARY      1   LAYER   2   ROW    13   COL     1   RATE   -0.342384    
 BOUNDARY      2   LAYER   2   ROW    14   COL     9   RATE    0.213431    



 STREAM LISTING     PERIOD      5   STEP       13

 LAYER ROW COL. STREAM  RCH.  FLOW INTO     FLOW TO   FLOW OUT OF   OVRLND.     DIRECT     STREAM       STREAM     STREAM     STREAM   STREAMBED  STREAMBED
                SEG.NO.  NO.  STRM. RCH.    AQUIFER    STRM. RCH.    RUNOFF     PRECIP       ET          HEAD       DEPTH      WIDTH   CONDCTNC.   GRADIENT

   2    1    1     1     1    2.5200E+03  1.9412E+01   2.5006E+03  0.000E+00  0.000E+00  0.000E+00  1.09903E+03  5.981E+00  7.392E+01  3.327E+00  1.945E+00
   2    2    2     1     2    2.5006E+03  4.6096E+01   2.4545E+03  0.000E+00  0.000E+00  0.000E+00  1.09401E+03  5.952E+00  7.356E+01  5.149E+00  2.984E+00
   2    3    3     1     3    2.4545E+03  3.9086E+01   2.4154E+03  0.000E+00  0.000E+00  0.000E+00  1.08833E+03  5.914E+00  7.308E+01  4.385E+00  2.971E+00
   2    3    4     1     4    2.4154E+03  3.5807E+01   2.3796E+03  0.000E+00  0.000E+00  0.000E+00  1.08329E+03  5.880E+00  7.266E+01  4.032E+00  2.960E+00
   2    4    5     2     1    2.2406E+03  0.0000E+00   2.2406E+03  0.000E+00  0.000E+00  0.000E+00  1.08982E+03  1.788E+01  1.200E+01  7.800E-01  6.961E+00
   2    5    6     2     2    2.2406E+03  1.2488E+01   2.2281E+03  0.000E+00  0.000E+00  0.000E+00  1.08432E+03  1.781E+01  1.200E+01  6.000E-01  6.938E+00
   2    6    6     2     3    2.2281E+03  1.2452E+01   2.2157E+03  0.000E+00  0.000E+00  0.000E+00  1.07955E+03  1.775E+01  1.200E+01  6.000E-01  6.918E+00
   2    7    6     2     4    2.2157E+03  1.2416E+01   2.2033E+03  0.000E+00  0.000E+00  0.000E+00  1.07477E+03  1.769E+01  1.200E+01  6.000E-01  6.898E+00
   2    8    6     2     5    2.2033E+03  1.2379E+01   2.1909E+03  0.000E+00  0.000E+00  0.000E+00  1.06999E+03  1.763E+01  1.200E+01  6.000E-01  6.877E+00
   2    3    5     3     1    1.0000E+01  2.8252E+00   7.1748E+00  0.000E+00  0.000E+00  0.000E+00  1.07555E+03  1.909E+00  9.636E+00  7.227E-01  1.955E+00
   2    3    6     3     2    7.1748E+00  2.4905E+00   4.6843E+00  0.000E+00  0.000E+00  0.000E+00  1.07264E+03  1.727E+00  8.909E+00  6.682E-01  1.864E+00
   2    3    7     3     3    4.6843E+00  1.9718E+00   2.7125E+00  0.000E+00  0.000E+00  0.000E+00  1.06987E+03  1.555E+00  8.218E+00  5.547E-01  1.777E+00
   2    4    8     3     4    2.7125E+00  2.2567E+00   4.5579E-01  0.000E+00  0.000E+00  0.000E+00  1.06682E+03  1.364E+00  7.455E+00  6.709E-01  1.682E+00
   2    5    8     3     5    4.5579E-01  4.5579E-01   0.0000E+00  0.000E+00  0.000E+00  0.000E+00  1.06362E+03  0.000E+00  6.655E+00  4.991E-01  1.582E+00
   2    6    8     3     6    0.0000E+00  0.0000E+00   0.0000E+00  0.000E+00  0.000E+00  0.000E+00  1.06055E+03  0.000E+00  6.145E+00  1.844E-01  1.000E+00
   2    5   10     4     1    1.0000E+01  9.0525E-01   9.0947E+00  0.000E+00  0.000E+00  0.000E+00  1.07835E+03  6.210E-01  1.000E+01  2.500E-01  1.207E+00
   2    5    9     4     2    9.0947E+00  1.7835E+00   7.3113E+00  0.000E+00  0.000E+00  0.000E+00  1.07148E+03  5.670E-01  1.000E+01  5.000E-01  1.189E+00
   2    6    8     4     3    7.3113E+00  1.2257E+00   6.0855E+00  0.000E+00  0.000E+00  0.000E+00  1.06368E+03  5.021E-01  1.000E+01  3.500E-01  1.167E+00
   2    6    8     5     1    6.0855E+00  1.4716E+00   4.6139E+00  0.000E+00  0.000E+00  0.000E+00  1.05854E+03  5.396E-01  1.039E+01  4.158E-01  1.180E+00
   2    7    7     5     2    4.6139E+00  1.4897E+00   3.1242E+00  0.000E+00  0.000E+00  0.000E+00  1.05398E+03  4.817E-01  8.557E+00  4.279E-01  1.161E+00
   2    8    7     5     3    3.1242E+00  8.2855E-01   2.2957E+00  0.000E+00  0.000E+00  0.000E+00  1.04968E+03  4.253E-01  6.911E+00  2.419E-01  1.142E+00
   2    8    6     5     4    2.2957E+00  4.9455E-01   1.8011E+00  0.000E+00  0.000E+00  0.000E+00  1.04664E+03  3.856E-01  5.843E+00  1.461E-01  1.129E+00
   2    9    6     6     1    2.1927E+03  1.2466E+01   2.1802E+03  0.000E+00  0.000E+00  0.000E+00  1.06050E+03  1.778E+01  1.200E+01  6.000E-01  6.926E+00
   2   10    7     6     2    2.1802E+03  1.2430E+01   2.1678E+03  0.000E+00  0.000E+00  0.000E+00  1.05590E+03  1.772E+01  1.200E+01  6.000E-01  6.905E+00
   2   11    7     6     3    2.1678E+03  1.2393E+01   2.1554E+03  0.000E+00  0.000E+00  0.000E+00  1.05129E+03  1.765E+01  1.200E+01  6.000E-01  6.885E+00
   2   12    7     6     4    2.1554E+03  1.0692E+01   2.1447E+03  0.000E+00  0.000E+00  0.000E+00  1.04669E+03  1.760E+01  1.200E+01  6.000E-01  5.940E+00
   2   13    7     6     5    2.1447E+03  3.3271E+00   2.1414E+03  0.000E+00  0.000E+00  0.000E+00  1.04347E+03  1.756E+01  1.200E+01  2.400E-01  4.621E+00
   2   14    9     7     1    1.5000E+02  2.6916E+00   1.4731E+02  0.000E+00  0.000E+00  0.000E+00  1.03986E+03  2.284E+00  5.528E+01  5.591E+00  1.605E-01
   2   13    8     7     2    1.4731E+02  3.6201E+00   1.4369E+02  0.000E+00  0.000E+00  0.000E+00  1.03477E+03  2.267E+00  5.520E+01  6.141E+00  1.965E-01
   2   13    7     7     3    1.4369E+02  3.7102E-01   1.4332E+02  0.000E+00  0.000E+00  0.000E+00  1.02968E+03  2.257E+00  5.515E+01  5.578E+00  2.217E-02
   2   13    6     8     1    2.2847E+03  2.2267E+01   2.2754E+03  1.299E+01  0.000E+00  0.000E+00  1.02979E+03  7.920E+00  7.455E+01  7.742E+00  9.587E-01
   2   13    5     8     2    2.2754E+03  1.8795E+01   2.2696E+03  1.299E+01  0.000E+00  0.000E+00  1.02353E+03  7.908E+00  7.450E+01  7.737E+00  8.098E-01
   2   13    4     8     3    2.2696E+03  1.6929E+01   2.2657E+03  1.299E+01  0.000E+00  0.000E+00  1.01728E+03  7.901E+00  7.447E+01  7.733E+00  7.297E-01
   2   13    3     8     4    2.2657E+03  1.6545E+01   2.2621E+03  1.299E+01  0.000E+00  0.000E+00  1.01102E+03  7.895E+00  7.445E+01  7.730E+00  7.134E-01
   2   13    2     8     5    2.2621E+03  1.3632E+01   2.2615E+03  1.299E+01  0.000E+00  0.000E+00  1.00477E+03  7.892E+00  7.443E+01  7.729E+00  5.879E-01
   2   13    1     8     6    2.2615E+03  1.2760E+01   2.2565E+03  7.792E+00  0.000E+00  0.000E+00  9.99762E+02  7.887E+00  7.441E+01  4.636E+00  9.174E-01
   2    4    5     9     1    3.6960E+02  0.0000E+00   3.6960E+02  0.000E+00  0.000E+00  0.000E+00  1.06045E+03  4.495E-01  2.000E+01  2.000E-03  1.150E+00
   2    4    5    10     1    2.4063E+02  0.0000E+00   2.4063E+02  0.000E+00  0.000E+00  0.000E+00  1.08050E+03  4.987E-01  2.000E+01  2.000E-03  1.166E+00





     0  LAKE CELLS ARE DRY.

 PERIOD     5     TIME STEP    13     TIME STEP LENGTH  1.7520E+05
 PERIOD TIME  2.2776E+06     TOTAL SIMULATION TIME  1.2790E+07


                 HYDROLOGIC BUDGET SUMMARIES FOR SIMULATED LAKES
     (ALL FLUID FLUXES ARE VOLUMES ADDED TO THE LAKE DURING PRESENT TIME STEP)
     ----------------------------------------------------------------------------------------
 LAKE    STAGE         VOLUME     VOL. CHANGE      PRECIP     EVAPORATION    SPECIFIED RUNOFF     COMPUTED RUNOFF    TOTAL RUNOFF
   1  1.083499E+03  1.071683E+08  7.683752E+06  0.000000E+00  1.661481E+05   0.000000E+00          0.000000E+00      0.000000E+00

            GROUND WATER            SURFACE WATER        WATER          UZF INFIL.
 LAKE    INFLOW     OUTFLOW      INFLOW     OUTFLOW       USE        FROM LAKE
   1  0.0000E+00  0.0000E+00  6.4754E+07  4.2159E+07  0.0000E+00       1.4745E+07

      CONNECTED LAKE   TIME-STEP         STAGE-CHANGE          PERCENT
 LAKE    INFLUX      SURFACE AREA   TIME STEP  CUMULATIVE    DISCREPANCY
   1   0.0000E+00     2.3708E+07   3.3533E-01  8.9987E+00       0.000
 --------------------------------------------------------------------------------



            CUMULATIVE HYDROLOGIC BUDGET SUMMARIES FOR SIMULATED LAKES
     (ALL FLUID FLUXES ARE SUMS OF VOLUMES ADDED TO THE LAKE SINCE INITIAL TIME)
     ---------------------------------------------------------------------------
 LAKE       PRECIP       EVAP     SPECIFIED RUNOFF   COMPUTED RUNOFF   TOTAL RUNOFF
   1     0.0000E+00  4.4493E+05       0.0000E+00       0.0000E+00       0.0000E+00

            GROUND WATER            SURFACE WATER       UZF INFIL.
 LAKE    INFLOW     OUTFLOW      INFLOW     OUTFLOW     FROM LAKE
   1  0.0000E+00  0.0000E+00  1.9325E+08  4.8784E+07    3.6852E+07

         WATER    CONNECTED LAKE   CHANGE       PERCENT
 LAKE     USE         INFLUX       IN VOL.    DISCREPANCY
   1   0.0000E+00   0.0000E+00   1.0717E+08      0.000
 --------------------------------------------------------------------------------

 UBDSV3 SAVING "           GW ET" ON UNIT  61 AT TIME STEP    13, STRESS PERIOD   5
 UBDSV3 SAVING "    UZF RECHARGE" ON UNIT  61 AT TIME STEP    13, STRESS PERIOD   5
 UBDSV3 SAVING " SURFACE LEAKAGE" ON UNIT  61 AT TIME STEP    13, STRESS PERIOD   5
 UBDSV3 SAVING "       HORT+DUNN" ON UNIT  61 AT TIME STEP    13, STRESS PERIOD   5
 UBDSV3 SAVING "  STORAGE CHANGE" ON UNIT  61 AT TIME STEP    13, STRESS PERIOD   5


UNSATURATED ZONE PACKAGE VOLUMETRIC BUDGET FOR  TIME STEP    13 STRESS PERIOD    5
  ------------------------------------------------------------------------------



     CUMULATIVE VOLUMES      L**3       RATES FOR THIS TIME STEP      L**3/T
     ------------------                 ------------------------

           IN:                                      IN:
           ---                                      ---
        INFILTRATION =   978718860.1233          INFILTRATION =         125.4918

          OUT:                                     OUT:
          ----                                     ----
              UZF ET =   889644421.6256                UZF ET =          82.7524
        UZF RECHARGE =   354163683.1116          UZF RECHARGE =          53.2438

            IN - OUT =  -265089244.6139              IN - OUT =         -10.5043

          STORAGE:                                 STORAGE:
          --------                                 --------
      STORAGE CHANGE =  -265520147.5578        STORAGE CHANGE =         -14.2991

 PERCENT DISCREPANCY IS DIFFERENCE BETWEEN IN-OUT MINUS CHANGE IN STORAGE
 DIVIDED BY THE AVERAGE OF IN AND OUT TIMES 100

 PERCENT DISCREPANCY =           0.01     PERCENT DISCREPANCY =           2.71






1
  VOLUMETRIC BUDGET FOR ENTIRE MODEL AT END OF TIME STEP   13, STRESS PERIOD   5
  ------------------------------------------------------------------------------

     CUMULATIVE VOLUMES      L**3       RATES FOR THIS TIME STEP      L**3/T
     ------------------                 ------------------------

           IN:                                      IN:
           ---                                      ---
             STORAGE =    39829564.0000               STORAGE =           4.6854
       CONSTANT HEAD =           0.0000         CONSTANT HEAD =           0.0000
               WELLS =           0.0000                 WELLS =           0.0000
     HEAD DEP BOUNDS =     2746026.7500       HEAD DEP BOUNDS =           0.2134
      STREAM LEAKAGE =   806198656.0000        STREAM LEAKAGE =         367.2534
       LAKE  SEEPAGE =           0.0000         LAKE  SEEPAGE =           0.0000
        UZF RECHARGE =   354163648.0000          UZF RECHARGE =          53.2438
               GW ET =           0.0000                 GW ET =           0.0000
     SURFACE LEAKAGE =           0.0000       SURFACE LEAKAGE =           0.0000

            TOTAL IN =  1202937856.0000              TOTAL IN =         425.3960

          OUT:                                     OUT:
          ----                                     ----
             STORAGE =   563317184.0000               STORAGE =         325.4094
       CONSTANT HEAD =           0.0000         CONSTANT HEAD =           0.0000
               WELLS =   226008000.0000                 WELLS =          30.0000
     HEAD DEP BOUNDS =     3731279.2500       HEAD DEP BOUNDS =           0.3424
      STREAM LEAKAGE =   229458928.0000        STREAM LEAKAGE =           0.0000
       LAKE  SEEPAGE =           0.0000         LAKE  SEEPAGE =           0.0000
        UZF RECHARGE =           0.0000          UZF RECHARGE =           0.0000
               GW ET =   160095152.0000                 GW ET =          14.1373
     SURFACE LEAKAGE =    28579440.0000       SURFACE LEAKAGE =          71.8094

           TOTAL OUT =  1211190016.0000             TOTAL OUT =         441.6985

            IN - OUT =    -8252160.0000              IN - OUT =         -16.3025

 PERCENT DISCREPANCY =          -0.68     PERCENT DISCREPANCY =          -3.76






         TIME SUMMARY AT END OF TIME STEP   13 IN STRESS PERIOD    5
                    SECONDS     MINUTES      HOURS       DAYS        YEARS
                    -----------------------------------------------------------
   TIME STEP LENGTH 1.75200E+05  2920.0      48.667      2.0278     5.55175E-03
 STRESS PERIOD TIME 2.27760E+06  37960.      632.67      26.361     7.21728E-02
         TOTAL TIME 1.27896E+07 2.13160E+05  3552.7      148.03     0.40528    
1
 
 SOLVING FOR HEAD 
                                                   Max.-Head-Change                         Max.-Flux-Residual
  Residual-Control   Outer-Iter.   Inner-Iter.     Column Row Layer    Maximum-Head-Change  Column Row Layer    Maximum-Flux-Residual          L2-NORM 
          0                 1           2             5    4     2       0.3123680454E+01       5    4    2         0.9187781247E+02      0.1051262019E+03
          0                 2           2             5    4     2       0.8661291425E+00       5    4    2         0.2563885647E+02      0.2632900478E+02
          0                 3           2             5    4     2       0.2164491283E+00       5    4    2         0.6406938521E+01      0.9985720695E+01
          0                 4           2             5    4     2       0.6273355580E-01       5    4    2         0.1857107188E+01      0.1878592435E+01
          0                 5           2             5    4     2       0.1818691299E-01       5    4    2         0.5383843416E+00      0.5384427452E+00
          0                 6           2             5    4     2       0.5272694096E-02       5    4    2         0.1560899231E+00      0.1560971709E+00
          0                 7           2             5    4     2       0.1528687313E-02       5    4    2         0.4525447706E-01      0.4525657471E-01
          0                 8           1             5    4     2       0.4431910943E-03       5    4    2         0.1312001760E-01      0.1312062528E-01

    ------------------------------------------------
       NWT REQUIRED            8 OUTER ITERATIONS 
       AND A TOTAL OF         15 INNER ITERATIONS.
    ------------------------------------------------

 OUTPUT CONTROL FOR STRESS PERIOD    5   TIME STEP   14
    PRINT BUDGET
    SAVE BUDGET

            WELLS   PERIOD    5   STEP  14
 WELL      1   LAYER   2   ROW     6   COL     4   RATE    -3.00000    
 WELL      2   LAYER   2   ROW     6   COL     5   RATE    -3.00000    
 WELL      3   LAYER   2   ROW     7   COL     4   RATE    -3.00000    
 WELL      4   LAYER   2   ROW     7   COL     5   RATE    -3.00000    
 WELL      5   LAYER   2   ROW     8   COL     4   RATE    -3.00000    
 WELL      6   LAYER   2   ROW     8   COL     5   RATE    -3.00000    
 WELL      7   LAYER   2   ROW     9   COL     4   RATE    -3.00000    
 WELL      8   LAYER   2   ROW     9   COL     5   RATE    -3.00000    
 WELL      9   LAYER   2   ROW    10   COL     4   RATE    -3.00000    
 WELL     10   LAYER   2   ROW    10   COL     5   RATE    -3.00000    

  HEAD DEP BOUNDS   PERIOD    5   STEP    14
 BOUNDARY      1   LAYER   2   ROW    13   COL     1   RATE   -0.341795    
 BOUNDARY      2   LAYER   2   ROW    14   COL     9   RATE    0.213439    



 STREAM LISTING     PERIOD      5   STEP       14

 LAYER ROW COL. STREAM  RCH.  FLOW INTO     FLOW TO   FLOW OUT OF   OVRLND.     DIRECT     STREAM       STREAM     STREAM     STREAM   STREAMBED  STREAMBED
                SEG.NO.  NO.  STRM. RCH.    AQUIFER    STRM. RCH.    RUNOFF     PRECIP       ET          HEAD       DEPTH      WIDTH   CONDCTNC.   GRADIENT

   2    1    1     1     1    1.6471E+03  1.3072E+01   1.6341E+03  0.000E+00  0.000E+00  0.000E+00  1.09815E+03  5.105E+00  6.300E+01  2.835E+00  1.537E+00
   2    2    2     1     2    1.6341E+03  3.4231E+01   1.5998E+03  0.000E+00  0.000E+00  0.000E+00  1.09314E+03  5.077E+00  6.265E+01  4.386E+00  2.602E+00
   2    3    3     1     3    1.5998E+03  2.9995E+01   1.5698E+03  0.000E+00  0.000E+00  0.000E+00  1.08746E+03  5.039E+00  6.218E+01  3.731E+00  2.680E+00
   2    3    4     1     4    1.5698E+03  2.7438E+01   1.5424E+03  0.000E+00  0.000E+00  0.000E+00  1.08241E+03  5.005E+00  6.176E+01  3.428E+00  2.668E+00
   2    4    5     2     1    1.5324E+03  0.0000E+00   1.5324E+03  0.000E+00  0.000E+00  0.000E+00  1.08616E+03  1.423E+01  1.200E+01  7.800E-01  5.744E+00
   2    5    6     2     2    1.5324E+03  1.0298E+01   1.5221E+03  0.000E+00  0.000E+00  0.000E+00  1.08067E+03  1.416E+01  1.200E+01  6.000E-01  5.721E+00
   2    6    6     2     3    1.5221E+03  1.0264E+01   1.5118E+03  0.000E+00  0.000E+00  0.000E+00  1.07590E+03  1.411E+01  1.200E+01  6.000E-01  5.702E+00
   2    7    6     2     4    1.5118E+03  1.0229E+01   1.5016E+03  0.000E+00  0.000E+00  0.000E+00  1.07112E+03  1.405E+01  1.200E+01  6.000E-01  5.683E+00
   2    8    6     2     5    1.5016E+03  1.0194E+01   1.4914E+03  0.000E+00  0.000E+00  0.000E+00  1.06635E+03  1.399E+01  1.200E+01  6.000E-01  5.664E+00
   2    3    5     3     1    1.0000E+01  2.8252E+00   7.1748E+00  0.000E+00  0.000E+00  0.000E+00  1.07555E+03  1.909E+00  9.636E+00  7.227E-01  1.955E+00
   2    3    6     3     2    7.1748E+00  2.4905E+00   4.6843E+00  0.000E+00  0.000E+00  0.000E+00  1.07264E+03  1.727E+00  8.909E+00  6.682E-01  1.864E+00
   2    3    7     3     3    4.6843E+00  1.9718E+00   2.7125E+00  0.000E+00  0.000E+00  0.000E+00  1.06987E+03  1.555E+00  8.218E+00  5.547E-01  1.777E+00
   2    4    8     3     4    2.7125E+00  2.2567E+00   4.5579E-01  0.000E+00  0.000E+00  0.000E+00  1.06682E+03  1.364E+00  7.455E+00  6.709E-01  1.682E+00
   2    5    8     3     5    4.5579E-01  4.5579E-01   0.0000E+00  0.000E+00  0.000E+00  0.000E+00  1.06362E+03  0.000E+00  6.655E+00  4.991E-01  1.582E+00
   2    6    8     3     6    0.0000E+00  0.0000E+00   0.0000E+00  0.000E+00  0.000E+00  0.000E+00  1.06055E+03  0.000E+00  6.145E+00  1.844E-01  1.000E+00
   2    5   10     4     1    1.0000E+01  9.0525E-01   9.0947E+00  0.000E+00  0.000E+00  0.000E+00  1.07835E+03  6.210E-01  1.000E+01  2.500E-01  1.207E+00
   2    5    9     4     2    9.0947E+00  1.7835E+00   7.3113E+00  0.000E+00  0.000E+00  0.000E+00  1.07148E+03  5.670E-01  1.000E+01  5.000E-01  1.189E+00
   2    6    8     4     3    7.3113E+00  1.2257E+00   6.0855E+00  0.000E+00  0.000E+00  0.000E+00  1.06368E+03  5.021E-01  1.000E+01  3.500E-01  1.167E+00
   2    6    8     5     1    6.0855E+00  1.4716E+00   4.6139E+00  0.000E+00  0.000E+00  0.000E+00  1.05854E+03  5.396E-01  1.039E+01  4.158E-01  1.180E+00
   2    7    7     5     2    4.6139E+00  1.4897E+00   3.1242E+00  0.000E+00  0.000E+00  0.000E+00  1.05398E+03  4.817E-01  8.557E+00  4.279E-01  1.161E+00
   2    8    7     5     3    3.1242E+00  8.2855E-01   2.2957E+00  0.000E+00  0.000E+00  0.000E+00  1.04968E+03  4.253E-01  6.911E+00  2.419E-01  1.142E+00
   2    8    6     5     4    2.2957E+00  4.9455E-01   1.8011E+00  0.000E+00  0.000E+00  0.000E+00  1.04664E+03  3.856E-01  5.843E+00  1.461E-01  1.129E+00
   2    9    6     6     1    1.4932E+03  1.0259E+01   1.4829E+03  0.000E+00  0.000E+00  0.000E+00  1.05683E+03  1.410E+01  1.200E+01  6.000E-01  5.700E+00
   2   10    7     6     2    1.4829E+03  1.0224E+01   1.4727E+03  0.000E+00  0.000E+00  0.000E+00  1.05222E+03  1.404E+01  1.200E+01  6.000E-01  5.680E+00
   2   11    7     6     3    1.4727E+03  1.0189E+01   1.4625E+03  0.000E+00  0.000E+00  0.000E+00  1.04762E+03  1.398E+01  1.200E+01  6.000E-01  5.660E+00
   2   12    7     6     4    1.4625E+03  8.3531E+00   1.4542E+03  0.000E+00  0.000E+00  0.000E+00  1.04302E+03  1.393E+01  1.200E+01  6.000E-01  4.641E+00
   2   13    7     6     5    1.4542E+03  2.4285E+00   1.4517E+03  0.000E+00  0.000E+00  0.000E+00  1.03981E+03  1.390E+01  1.200E+01  2.400E-01  3.373E+00
   2   14    9     7     1    1.5000E+02  2.6928E+00   1.4731E+02  0.000E+00  0.000E+00  0.000E+00  1.03986E+03  2.284E+00  5.528E+01  5.591E+00  1.605E-01
   2   13    8     7     2    1.4731E+02  3.5871E+00   1.4372E+02  0.000E+00  0.000E+00  0.000E+00  1.03477E+03  2.267E+00  5.520E+01  6.141E+00  1.947E-01
   2   13    7     7     3    1.4372E+02 -5.2706E-02   1.4377E+02  0.000E+00  0.000E+00  0.000E+00  1.02968E+03  2.258E+00  5.516E+01  5.578E+00 -3.149E-03
   2   13    6     8     1    1.5955E+03  1.2099E+01   1.5936E+03  1.019E+01  0.000E+00  0.000E+00  1.02867E+03  6.795E+00  6.980E+01  7.216E+00  5.589E-01
   2   13    5     8     2    1.5936E+03  1.2648E+01   1.5912E+03  1.019E+01  0.000E+00  0.000E+00  1.02242E+03  6.791E+00  6.978E+01  7.214E+00  5.844E-01
   2   13    4     8     3    1.5912E+03  1.0834E+01   1.5905E+03  1.019E+01  0.000E+00  0.000E+00  1.01616E+03  6.788E+00  6.977E+01  7.213E+00  5.007E-01
   2   13    3     8     4    1.5905E+03  1.0082E+01   1.5906E+03  1.019E+01  0.000E+00  0.000E+00  1.00991E+03  6.787E+00  6.977E+01  7.213E+00  4.659E-01
   2   13    2     8     5    1.5906E+03  3.6116E+00   1.5972E+03  1.019E+01  0.000E+00  0.000E+00  1.00367E+03  6.793E+00  6.979E+01  7.216E+00  1.668E-01
   2   13    1     8     6    1.5972E+03  7.2697E+00   1.5961E+03  6.115E+00  0.000E+00  0.000E+00  9.98673E+02  6.798E+00  6.981E+01  4.331E+00  5.595E-01
   2    4    5     9     1    0.0000E+00  0.0000E+00   0.0000E+00  0.000E+00  0.000E+00  0.000E+00  1.06000E+03  9.783E-05  2.000E+01  2.000E-03 -9.715E-02
   2    4    5    10     1    0.0000E+00  0.0000E+00   0.0000E+00  0.000E+00  0.000E+00  0.000E+00  1.08000E+03  0.000E+00  2.000E+01  2.000E-03  1.000E+00





     0  LAKE CELLS ARE DRY.

 PERIOD     5     TIME STEP    14     TIME STEP LENGTH  1.7520E+05
 PERIOD TIME  2.4528E+06     TOTAL SIMULATION TIME  1.2965E+07


                 HYDROLOGIC BUDGET SUMMARIES FOR SIMULATED LAKES
     (ALL FLUID FLUXES ARE VOLUMES ADDED TO THE LAKE DURING PRESENT TIME STEP)
     ----------------------------------------------------------------------------------------
 LAKE    STAGE         VOLUME     VOL. CHANGE      PRECIP     EVAPORATION    SPECIFIED RUNOFF     COMPUTED RUNOFF    TOTAL RUNOFF
   1  1.082873E+03  9.298465E+07 -1.418362E+07  0.000000E+00  1.544611E+05   0.000000E+00          0.000000E+00      0.000000E+00

            GROUND WATER            SURFACE WATER        WATER          UZF INFIL.
 LAKE    INFLOW     OUTFLOW      INFLOW     OUTFLOW       USE        FROM LAKE
   1  0.0000E+00  0.0000E+00  0.0000E+00  0.0000E+00  0.0000E+00       1.4029E+07

      CONNECTED LAKE   TIME-STEP         STAGE-CHANGE          PERCENT
 LAKE    INFLUX      SURFACE AREA   TIME STEP  CUMULATIVE    DISCREPANCY
   1   0.0000E+00     2.2041E+07  -6.2578E-01  8.3729E+00       0.000
 --------------------------------------------------------------------------------



            CUMULATIVE HYDROLOGIC BUDGET SUMMARIES FOR SIMULATED LAKES
     (ALL FLUID FLUXES ARE SUMS OF VOLUMES ADDED TO THE LAKE SINCE INITIAL TIME)
     ---------------------------------------------------------------------------
 LAKE       PRECIP       EVAP     SPECIFIED RUNOFF   COMPUTED RUNOFF   TOTAL RUNOFF
   1     0.0000E+00  5.9939E+05       0.0000E+00       0.0000E+00       0.0000E+00

            GROUND WATER            SURFACE WATER       UZF INFIL.
 LAKE    INFLOW     OUTFLOW      INFLOW     OUTFLOW     FROM LAKE
   1  0.0000E+00  0.0000E+00  1.9325E+08  4.8784E+07    5.0881E+07

         WATER    CONNECTED LAKE   CHANGE       PERCENT
 LAKE     USE         INFLUX       IN VOL.    DISCREPANCY
   1   0.0000E+00   0.0000E+00   9.2985E+07      0.000
 --------------------------------------------------------------------------------

 UBDSV3 SAVING "           GW ET" ON UNIT  61 AT TIME STEP    14, STRESS PERIOD   5
 UBDSV3 SAVING "    UZF RECHARGE" ON UNIT  61 AT TIME STEP    14, STRESS PERIOD   5
 UBDSV3 SAVING " SURFACE LEAKAGE" ON UNIT  61 AT TIME STEP    14, STRESS PERIOD   5
 UBDSV3 SAVING "       HORT+DUNN" ON UNIT  61 AT TIME STEP    14, STRESS PERIOD   5
 UBDSV3 SAVING "  STORAGE CHANGE" ON UNIT  61 AT TIME STEP    14, STRESS PERIOD   5


UNSATURATED ZONE PACKAGE VOLUMETRIC BUDGET FOR  TIME STEP    14 STRESS PERIOD    5
  ------------------------------------------------------------------------------



     CUMULATIVE VOLUMES      L**3       RATES FOR THIS TIME STEP      L**3/T
     ------------------                 ------------------------

           IN:                                      IN:
           ---                                      ---
        INFILTRATION =   999986405.2014          INFILTRATION =         121.3901

          OUT:                                     OUT:
          ----                                     ----
              UZF ET =   903956965.4367                UZF ET =          81.6926
        UZF RECHARGE =   385845966.2572          UZF RECHARGE =         180.8350

            IN - OUT =  -289816526.4924              IN - OUT =        -141.1375

          STORAGE:                                 STORAGE:
          --------                                 --------
      STORAGE CHANGE =  -290113071.2699        STORAGE CHANGE =        -140.3706

 PERCENT DISCREPANCY IS DIFFERENCE BETWEEN IN-OUT MINUS CHANGE IN STORAGE
 DIVIDED BY THE AVERAGE OF IN AND OUT TIMES 100

 PERCENT DISCREPANCY =           0.01     PERCENT DISCREPANCY =          -0.29






1
  VOLUMETRIC BUDGET FOR ENTIRE MODEL AT END OF TIME STEP   14, STRESS PERIOD   5
  ------------------------------------------------------------------------------

     CUMULATIVE VOLUMES      L**3       RATES FOR THIS TIME STEP      L**3/T
     ------------------                 ------------------------

           IN:                                      IN:
           ---                                      ---
             STORAGE =    40536712.0000               STORAGE =           4.0362
       CONSTANT HEAD =           0.0000         CONSTANT HEAD =           0.0000
               WELLS =           0.0000                 WELLS =           0.0000
     HEAD DEP BOUNDS =     2783421.2500       HEAD DEP BOUNDS =           0.2134
      STREAM LEAKAGE =   853187008.0000        STREAM LEAKAGE =         268.1985
       LAKE  SEEPAGE =           0.0000         LAKE  SEEPAGE =           0.0000
        UZF RECHARGE =   385845920.0000          UZF RECHARGE =         180.8349
               GW ET =           0.0000                 GW ET =           0.0000
     SURFACE LEAKAGE =           0.0000       SURFACE LEAKAGE =           0.0000

            TOTAL IN =  1282353024.0000              TOTAL IN =         453.2831

          OUT:                                     OUT:
          ----                                     ----
             STORAGE =   627384512.0000               STORAGE =         365.6810
       CONSTANT HEAD =           0.0000         CONSTANT HEAD =           0.0000
               WELLS =   231264000.0000                 WELLS =          30.0000
     HEAD DEP BOUNDS =     3791161.7500       HEAD DEP BOUNDS =           0.3418
      STREAM LEAKAGE =   229468160.0000        STREAM LEAKAGE =       5.2706E-02
       LAKE  SEEPAGE =           0.0000         LAKE  SEEPAGE =           0.0000
        UZF RECHARGE =           0.0000          UZF RECHARGE =           0.0000
               GW ET =   162635840.0000                 GW ET =          14.5016
     SURFACE LEAKAGE =    38415412.0000       SURFACE LEAKAGE =          56.1414

           TOTAL OUT =  1292958976.0000             TOTAL OUT =         466.7185

            IN - OUT =   -10605952.0000              IN - OUT =         -13.4354

 PERCENT DISCREPANCY =          -0.82     PERCENT DISCREPANCY =          -2.92






         TIME SUMMARY AT END OF TIME STEP   14 IN STRESS PERIOD    5
                    SECONDS     MINUTES      HOURS       DAYS        YEARS
                    -----------------------------------------------------------
   TIME STEP LENGTH 1.75200E+05  2920.0      48.667      2.0278     5.55175E-03
 STRESS PERIOD TIME 2.45280E+06  40880.      681.33      28.389     7.77245E-02
         TOTAL TIME 1.29648E+07 2.16080E+05  3601.3      150.06     0.41083    
1
 
 SOLVING FOR HEAD 
                                                   Max.-Head-Change                         Max.-Flux-Residual
  Residual-Control   Outer-Iter.   Inner-Iter.     Column Row Layer    Maximum-Head-Change  Column Row Layer    Maximum-Flux-Residual          L2-NORM 
          0                 1           2             5    4     2       0.2113890605E+01       5    4    2         0.6165315487E+02      0.7745198264E+02
          0                 2           2             5    4     2       0.5136132235E+00       5   13    2         0.1696523823E+02      0.3111501015E+02
          0                 3           2             5    4     2       0.1414947589E+00       5    4    2         0.4191491754E+01      0.6946306499E+01
          0                 4           2             5    4     2       0.3901191053E-01       5    4    2         0.1156549609E+01      0.1158336379E+01
          0                 5           2             5    4     2       0.1075549111E-01       5    4    2         0.3188218914E+00      0.3188399912E+00
          0                 6           2             5    4     2       0.2965393225E-02       5    4    2         0.8790516304E-01      0.8790957076E-01
          0                 7           1             5    4     2       0.8175641747E-03       5    4    2         0.2423552294E-01      0.2423675259E-01

    ------------------------------------------------
       NWT REQUIRED            7 OUTER ITERATIONS 
       AND A TOTAL OF         13 INNER ITERATIONS.
    ------------------------------------------------

 OUTPUT CONTROL FOR STRESS PERIOD    5   TIME STEP   15
    PRINT BUDGET
    PRINT HEAD FOR ALL LAYERS
    SAVE HEAD FOR ALL LAYERS
    SAVE BUDGET

            WELLS   PERIOD    5   STEP  15
 WELL      1   LAYER   2   ROW     6   COL     4   RATE    -3.00000    
 WELL      2   LAYER   2   ROW     6   COL     5   RATE    -3.00000    
 WELL      3   LAYER   2   ROW     7   COL     4   RATE    -3.00000    
 WELL      4   LAYER   2   ROW     7   COL     5   RATE    -3.00000    
 WELL      5   LAYER   2   ROW     8   COL     4   RATE    -3.00000    
 WELL      6   LAYER   2   ROW     8   COL     5   RATE    -3.00000    
 WELL      7   LAYER   2   ROW     9   COL     4   RATE    -3.00000    
 WELL      8   LAYER   2   ROW     9   COL     5   RATE    -3.00000    
 WELL      9   LAYER   2   ROW    10   COL     4   RATE    -3.00000    
 WELL     10   LAYER   2   ROW    10   COL     5   RATE    -3.00000    

  HEAD DEP BOUNDS   PERIOD    5   STEP    15
 BOUNDARY      1   LAYER   2   ROW    13   COL     1   RATE   -0.334529    
 BOUNDARY      2   LAYER   2   ROW    14   COL     9   RATE    0.213461    



 STREAM LISTING     PERIOD      5   STEP       15

 LAYER ROW COL. STREAM  RCH.  FLOW INTO     FLOW TO   FLOW OUT OF   OVRLND.     DIRECT     STREAM       STREAM     STREAM     STREAM   STREAMBED  STREAMBED
                SEG.NO.  NO.  STRM. RCH.    AQUIFER    STRM. RCH.    RUNOFF     PRECIP       ET          HEAD       DEPTH      WIDTH   CONDCTNC.   GRADIENT

   2    1    1     1     1    1.6000E+02  1.9866E+00   1.5801E+02  0.000E+00  0.000E+00  0.000E+00  1.09519E+03  2.140E+00  2.619E+01  1.179E+00  5.618E-01
   2    2    2     1     2    1.5801E+02  8.8020E+00   1.4921E+02  0.000E+00  0.000E+00  0.000E+00  1.09017E+03  2.112E+00  2.585E+01  1.810E+00  1.621E+00
   2    3    3     1     3    1.4921E+02  7.7019E+00   1.4151E+02  0.000E+00  0.000E+00  0.000E+00  1.08449E+03  2.069E+00  2.532E+01  1.519E+00  1.690E+00
   2    3    4     1     4    1.4151E+02  6.9329E+00   1.3458E+02  0.000E+00  0.000E+00  0.000E+00  1.07944E+03  2.030E+00  2.484E+01  1.378E+00  1.677E+00
   2    4    5     2     1    1.2458E+02  0.0000E+00   1.2458E+02  0.000E+00  0.000E+00  0.000E+00  1.07506E+03  3.129E+00  1.200E+01  7.800E-01  2.043E+00
   2    5    6     2     2    1.2458E+02  3.6381E+00   1.2094E+02  0.000E+00  0.000E+00  0.000E+00  1.06957E+03  3.064E+00  1.200E+01  6.000E-01  2.021E+00
   2    6    6     2     3    1.2094E+02  3.6041E+00   1.1733E+02  0.000E+00  0.000E+00  0.000E+00  1.06480E+03  3.007E+00  1.200E+01  6.000E-01  2.002E+00
   2    7    6     2     4    1.1733E+02  3.5699E+00   1.1376E+02  0.000E+00  0.000E+00  0.000E+00  1.06003E+03  2.950E+00  1.200E+01  6.000E-01  1.983E+00
   2    8    6     2     5    1.1376E+02  3.5356E+00   1.1023E+02  0.000E+00  0.000E+00  0.000E+00  1.05525E+03  2.893E+00  1.200E+01  6.000E-01  1.964E+00
   2    3    5     3     1    1.0000E+01  2.8252E+00   7.1748E+00  0.000E+00  0.000E+00  0.000E+00  1.07555E+03  1.909E+00  9.636E+00  7.227E-01  1.955E+00
   2    3    6     3     2    7.1748E+00  2.4905E+00   4.6843E+00  0.000E+00  0.000E+00  0.000E+00  1.07264E+03  1.727E+00  8.909E+00  6.682E-01  1.864E+00
   2    3    7     3     3    4.6843E+00  1.9718E+00   2.7125E+00  0.000E+00  0.000E+00  0.000E+00  1.06987E+03  1.555E+00  8.218E+00  5.547E-01  1.777E+00
   2    4    8     3     4    2.7125E+00  2.2567E+00   4.5579E-01  0.000E+00  0.000E+00  0.000E+00  1.06682E+03  1.364E+00  7.455E+00  6.709E-01  1.682E+00
   2    5    8     3     5    4.5579E-01  4.5579E-01   0.0000E+00  0.000E+00  0.000E+00  0.000E+00  1.06362E+03  0.000E+00  6.655E+00  4.991E-01  1.582E+00
   2    6    8     3     6    0.0000E+00  0.0000E+00   0.0000E+00  0.000E+00  0.000E+00  0.000E+00  1.06055E+03  0.000E+00  6.145E+00  1.844E-01  1.000E+00
   2    5   10     4     1    1.0000E+01  9.0525E-01   9.0947E+00  0.000E+00  0.000E+00  0.000E+00  1.07835E+03  6.210E-01  1.000E+01  2.500E-01  1.207E+00
   2    5    9     4     2    9.0947E+00  1.7835E+00   7.3113E+00  0.000E+00  0.000E+00  0.000E+00  1.07148E+03  5.670E-01  1.000E+01  5.000E-01  1.189E+00
   2    6    8     4     3    7.3113E+00  1.2257E+00   6.0855E+00  0.000E+00  0.000E+00  0.000E+00  1.06368E+03  5.021E-01  1.000E+01  3.500E-01  1.167E+00
   2    6    8     5     1    6.0855E+00  1.4716E+00   4.6139E+00  0.000E+00  0.000E+00  0.000E+00  1.05854E+03  5.396E-01  1.039E+01  4.158E-01  1.180E+00
   2    7    7     5     2    4.6139E+00  1.4897E+00   3.1242E+00  0.000E+00  0.000E+00  0.000E+00  1.05398E+03  4.817E-01  8.557E+00  4.279E-01  1.161E+00
   2    8    7     5     3    3.1242E+00  8.2855E-01   2.2957E+00  0.000E+00  0.000E+00  0.000E+00  1.04968E+03  4.253E-01  6.911E+00  2.419E-01  1.142E+00
   2    8    6     5     4    2.2957E+00  4.9455E-01   1.8011E+00  0.000E+00  0.000E+00  0.000E+00  1.04664E+03  3.856E-01  5.843E+00  1.461E-01  1.129E+00
   2    9    6     6     1    1.1203E+02  3.5379E+00   1.0849E+02  0.000E+00  0.000E+00  0.000E+00  1.04562E+03  2.897E+00  1.200E+01  6.000E-01  1.966E+00
   2   10    7     6     2    1.0849E+02  3.5029E+00   1.0499E+02  0.000E+00  0.000E+00  0.000E+00  1.04102E+03  2.838E+00  1.200E+01  6.000E-01  1.946E+00
   2   11    7     6     3    1.0499E+02  3.4677E+00   1.0152E+02  0.000E+00  0.000E+00  0.000E+00  1.03642E+03  2.779E+00  1.200E+01  6.000E-01  1.926E+00
   2   12    7     6     4    1.0152E+02  1.6444E+00   9.9877E+01  0.000E+00  0.000E+00  0.000E+00  1.03183E+03  2.736E+00  1.200E+01  6.000E-01  9.136E-01
   2   13    7     6     5    9.9877E+01 -2.4619E-01   1.0012E+02  0.000E+00  0.000E+00  0.000E+00  1.02863E+03  2.724E+00  1.200E+01  2.400E-01 -3.419E-01
   2   14    9     7     1    1.5000E+02  2.6960E+00   1.4730E+02  0.000E+00  0.000E+00  0.000E+00  1.03986E+03  2.284E+00  5.528E+01  5.591E+00  1.607E-01
   2   13    8     7     2    1.4730E+02  3.5649E+00   1.4374E+02  0.000E+00  0.000E+00  0.000E+00  1.03477E+03  2.267E+00  5.520E+01  6.141E+00  1.935E-01
   2   13    7     7     3    1.4374E+02  1.0047E-01   1.4364E+02  0.000E+00  0.000E+00  0.000E+00  1.02968E+03  2.258E+00  5.516E+01  5.578E+00  6.004E-03
   2   13    6     8     1    2.4376E+02 -6.4723E+00   2.5207E+02  1.834E+00  0.000E+00  0.000E+00  1.02525E+03  3.376E+00  4.895E+01  4.989E+00 -4.325E-01
   2   13    5     8     2    2.5207E+02 -4.1576E+00   2.5806E+02  1.834E+00  0.000E+00  0.000E+00  1.01904E+03  3.413E+00  4.949E+01  5.043E+00 -2.748E-01
   2   13    4     8     3    2.5806E+02 -5.5444E+00   2.6544E+02  1.834E+00  0.000E+00  0.000E+00  1.01282E+03  3.447E+00  4.998E+01  5.093E+00 -3.629E-01
   2   13    3     8     4    2.6544E+02 -6.6609E+00   2.7393E+02  1.834E+00  0.000E+00  0.000E+00  1.00661E+03  3.486E+00  5.055E+01  5.152E+00 -4.310E-01
   2   13    2     8     5    2.7393E+02 -1.2297E+01   2.8807E+02  1.834E+00  0.000E+00  0.000E+00  1.00042E+03  3.542E+00  5.135E+01  5.233E+00 -7.833E-01
   2   13    1     8     6    2.8807E+02 -4.2639E+00   2.9343E+02  1.101E+00  0.000E+00  0.000E+00  9.95463E+02  3.588E+00  5.203E+01  3.181E+00 -4.468E-01
   2    4    5     9     1    0.0000E+00  0.0000E+00   0.0000E+00  0.000E+00  0.000E+00  0.000E+00  1.06000E+03  4.055E-04  2.000E+01  2.000E-03 -1.038E+00
   2    4    5    10     1    0.0000E+00  0.0000E+00   0.0000E+00  0.000E+00  0.000E+00  0.000E+00  1.08000E+03  0.000E+00  2.000E+01  2.000E-03  1.000E+00





     0  LAKE CELLS ARE DRY.

 PERIOD     5     TIME STEP    15     TIME STEP LENGTH  1.7520E+05
 PERIOD TIME  2.6280E+06     TOTAL SIMULATION TIME  1.3140E+07


                 HYDROLOGIC BUDGET SUMMARIES FOR SIMULATED LAKES
     (ALL FLUID FLUXES ARE VOLUMES ADDED TO THE LAKE DURING PRESENT TIME STEP)
     ----------------------------------------------------------------------------------------
 LAKE    STAGE         VOLUME     VOL. CHANGE      PRECIP     EVAPORATION    SPECIFIED RUNOFF     COMPUTED RUNOFF    TOTAL RUNOFF
   1  1.082257E+03  7.983189E+07 -1.315276E+07  0.000000E+00  1.429448E+05   0.000000E+00          0.000000E+00      0.000000E+00

            GROUND WATER            SURFACE WATER        WATER          UZF INFIL.
 LAKE    INFLOW     OUTFLOW      INFLOW     OUTFLOW       USE        FROM LAKE
   1  0.0000E+00  0.0000E+00  0.0000E+00  0.0000E+00  0.0000E+00       1.3010E+07

      CONNECTED LAKE   TIME-STEP         STAGE-CHANGE          PERCENT
 LAKE    INFLUX      SURFACE AREA   TIME STEP  CUMULATIVE    DISCREPANCY
   1   0.0000E+00     2.0397E+07  -6.1547E-01  7.7575E+00      -0.000
 --------------------------------------------------------------------------------



            CUMULATIVE HYDROLOGIC BUDGET SUMMARIES FOR SIMULATED LAKES
     (ALL FLUID FLUXES ARE SUMS OF VOLUMES ADDED TO THE LAKE SINCE INITIAL TIME)
     ---------------------------------------------------------------------------
 LAKE       PRECIP       EVAP     SPECIFIED RUNOFF   COMPUTED RUNOFF   TOTAL RUNOFF
   1     0.0000E+00  7.4234E+05       0.0000E+00       0.0000E+00       0.0000E+00

            GROUND WATER            SURFACE WATER       UZF INFIL.
 LAKE    INFLOW     OUTFLOW      INFLOW     OUTFLOW     FROM LAKE
   1  0.0000E+00  0.0000E+00  1.9325E+08  4.8784E+07    6.3891E+07

         WATER    CONNECTED LAKE   CHANGE       PERCENT
 LAKE     USE         INFLUX       IN VOL.    DISCREPANCY
   1   0.0000E+00   0.0000E+00   7.9832E+07      0.000
 --------------------------------------------------------------------------------

 UBDSV3 SAVING "           GW ET" ON UNIT  61 AT TIME STEP    15, STRESS PERIOD   5
 UBDSV3 SAVING "    UZF RECHARGE" ON UNIT  61 AT TIME STEP    15, STRESS PERIOD   5
 UBDSV3 SAVING " SURFACE LEAKAGE" ON UNIT  61 AT TIME STEP    15, STRESS PERIOD   5
 UBDSV3 SAVING "       HORT+DUNN" ON UNIT  61 AT TIME STEP    15, STRESS PERIOD   5
 UBDSV3 SAVING "  STORAGE CHANGE" ON UNIT  61 AT TIME STEP    15, STRESS PERIOD   5


UNSATURATED ZONE PACKAGE VOLUMETRIC BUDGET FOR  TIME STEP    15 STRESS PERIOD    5
  ------------------------------------------------------------------------------



     CUMULATIVE VOLUMES      L**3       RATES FOR THIS TIME STEP      L**3/T
     ------------------                 ------------------------

           IN:                                      IN:
           ---                                      ---
        INFILTRATION =  1020338079.2581          INFILTRATION =         116.1625

          OUT:                                     OUT:
          ----                                     ----
              UZF ET =   918025158.9391                UZF ET =          80.2979
        UZF RECHARGE =   412798068.6433          UZF RECHARGE =         153.8362

            IN - OUT =  -310485148.3244              IN - OUT =        -117.9716

          STORAGE:                                 STORAGE:
          --------                                 --------
      STORAGE CHANGE =  -310702430.9617        STORAGE CHANGE =        -117.5192

 PERCENT DISCREPANCY IS DIFFERENCE BETWEEN IN-OUT MINUS CHANGE IN STORAGE
 DIVIDED BY THE AVERAGE OF IN AND OUT TIMES 100

 PERCENT DISCREPANCY =           0.00     PERCENT DISCREPANCY =          -0.19






1
              HEAD IN LAYER   1 AT END OF TIME STEP    15 IN STRESS PERIOD    5
  -----------------------------------------------------------------------------

           1       2       3       4       5       6       7       8       9      10
 ...................................................................................
   1  6999.00 6999.00 6999.00 6999.00 6999.00 6999.00 6999.00 6999.00 6999.00 6999.00
   2  6999.00 6999.00 6999.00 6999.00 6999.00 6999.00 6999.00 6999.00 6999.00 6999.00
   3  6999.00 6999.00 6999.00 6999.00 6999.00 6999.00 6999.00 6999.00 6999.00 6999.00
   4  6999.00 6999.00 6999.00 6999.00 1082.26 6999.00 6999.00 6999.00 6999.00 6999.00
   5  6999.00 6999.00 6999.00 6999.00 6999.00 6999.00 6999.00 6999.00 6999.00 6999.00
   6  6999.00 6999.00 6999.00 6999.00 6999.00 6999.00 6999.00 6999.00 6999.00 6999.00
   7  6999.00 6999.00 6999.00 6999.00 6999.00 6999.00 6999.00 6999.00 6999.00 6999.00
   8  6999.00 6999.00 6999.00 6999.00 6999.00 6999.00 6999.00 6999.00 6999.00 6999.00
   9  6999.00 6999.00 6999.00 6999.00 6999.00 6999.00 6999.00 6999.00 6999.00 6999.00
  10  6999.00 6999.00 6999.00 6999.00 6999.00 6999.00 6999.00 6999.00 6999.00 6999.00
  11  6999.00 6999.00 6999.00 6999.00 6999.00 6999.00 6999.00 6999.00 6999.00 6999.00
  12  6999.00 6999.00 6999.00 6999.00 6999.00 6999.00 6999.00 6999.00 6999.00 6999.00
  13  6999.00 6999.00 6999.00 6999.00 6999.00 6999.00 6999.00 6999.00 6999.00 6999.00
  14  6999.00 6999.00 6999.00 6999.00 6999.00 6999.00 6999.00 6999.00 6999.00 6999.00
  15  6999.00 6999.00 6999.00 6999.00 6999.00 6999.00 6999.00 6999.00 6999.00 6999.00
1
              HEAD IN LAYER   2 AT END OF TIME STEP    15 IN STRESS PERIOD    5
  -----------------------------------------------------------------------------

           1       2       3       4       5       6       7       8       9      10
 ...................................................................................
   1  1093.50 1085.77 6999.00 6999.00 6999.00 6999.00 6999.00 6999.00 6999.00 6999.00
   2  1085.90 1085.31 1073.54 6999.00 6999.00 1066.92 1066.70 1063.62 6999.00 6999.00
   3  6999.00 1070.36 1070.60 1066.46 1064.31 1064.73 1064.83 1063.12 6999.00 6999.00
   4  1060.56 1060.49 1059.26 1056.87 1063.11 1054.68 1055.29 1059.24 1058.01 6999.00
   5  1056.37 1053.46 1051.71 1050.03 1050.40 1051.28 1050.19 1051.73 1055.18 1057.41
   6  1052.24 1048.27 1046.39 1044.30 1044.72 1047.61 1047.53 1049.49 1052.19 1056.68
   7  1049.12 1043.44 1041.50 1039.57 1040.33 1043.73 1044.34 1046.35 1048.99 6999.00
   8  6999.00 1038.17 1036.95 1035.25 1036.13 1039.61 1040.01 1042.84 1044.51 6999.00
   9  6999.00 1032.48 1032.04 1030.82 1031.85 1035.21 1035.48 1037.18 1039.83 6999.00
  10  6999.00 1026.73 1027.03 1026.70 1027.96 1030.46 1032.91 1033.19 1035.95 1038.33
  11  6999.00 1019.62 1020.51 1023.14 1025.12 1027.51 1030.63 1031.11 1034.29 6999.00
  12  1003.10 1009.65 1013.89 1018.35 1021.98 1025.55 1029.09 1030.86 1034.59 6999.00
  13   996.80 1002.77 1007.90 1013.91 1019.86 1026.55 1029.66 1034.19 1036.73 6999.00
  14  6999.00 1006.75 1010.69 1015.52 1020.59 1025.73 1030.61 1035.20 1039.38 6999.00
  15  6999.00 6999.00 1016.37 1019.38 1023.29 1026.69 6999.00 6999.00 6999.00 6999.00

 HEAD WILL BE SAVED ON UNIT   58 AT END OF TIME STEP   15, STRESS PERIOD    5
1
  VOLUMETRIC BUDGET FOR ENTIRE MODEL AT END OF TIME STEP   15, STRESS PERIOD   5
  ------------------------------------------------------------------------------

     CUMULATIVE VOLUMES      L**3       RATES FOR THIS TIME STEP      L**3/T
     ------------------                 ------------------------

           IN:                                      IN:
           ---                                      ---
             STORAGE =    49029224.0000               STORAGE =          48.4732
       CONSTANT HEAD =           0.0000         CONSTANT HEAD =           0.0000
               WELLS =           0.0000                 WELLS =           0.0000
     HEAD DEP BOUNDS =     2820819.7500       HEAD DEP BOUNDS =           0.2135
      STREAM LEAKAGE =   866587072.0000        STREAM LEAKAGE =          76.4842
       LAKE  SEEPAGE =           0.0000         LAKE  SEEPAGE =           0.0000
        UZF RECHARGE =   412798016.0000          UZF RECHARGE =         153.8362
               GW ET =           0.0000                 GW ET =           0.0000
     SURFACE LEAKAGE =           0.0000       SURFACE LEAKAGE =           0.0000

            TOTAL IN =  1331235072.0000              TOTAL IN =         279.0071

          OUT:                                     OUT:
          ----                                     ----
             STORAGE =   660551168.0000               STORAGE =         189.3074
       CONSTANT HEAD =           0.0000         CONSTANT HEAD =           0.0000
               WELLS =   236520000.0000                 WELLS =          30.0000
     HEAD DEP BOUNDS =     3849771.2500       HEAD DEP BOUNDS =           0.3345
      STREAM LEAKAGE =   236413472.0000        STREAM LEAKAGE =          39.6422
       LAKE  SEEPAGE =           0.0000         LAKE  SEEPAGE =           0.0000
        UZF RECHARGE =           0.0000          UZF RECHARGE =           0.0000
               GW ET =   165187168.0000                 GW ET =          14.5624
     SURFACE LEAKAGE =    40154796.0000       SURFACE LEAKAGE =           9.9280

           TOTAL OUT =  1342676352.0000             TOTAL OUT =         283.7744

            IN - OUT =   -11441280.0000              IN - OUT =          -4.7673

 PERCENT DISCREPANCY =          -0.86     PERCENT DISCREPANCY =          -1.69






         TIME SUMMARY AT END OF TIME STEP   15 IN STRESS PERIOD    5
                    SECONDS     MINUTES      HOURS       DAYS        YEARS
                    -----------------------------------------------------------
   TIME STEP LENGTH 1.75200E+05  2920.0      48.667      2.0278     5.55175E-03
 STRESS PERIOD TIME 2.62800E+06  43800.      730.00      30.417     8.32763E-02
         TOTAL TIME 1.31400E+07 2.19000E+05  3650.0      152.08     0.41638    
1
1
                            STRESS PERIOD NO.    6, LENGTH =   2628000.    
                            -----------------------------------------------

                              NUMBER OF TIME STEPS =    15

                               MULTIPLIER FOR DELT =     1.000

                            INITIAL TIME STEP SIZE =   175200.0    

      0 WELLS

 REUSING NON-PARAMETER GHB CELLS FROM LAST STRESS PERIOD

      2 GHB CELLS

 REUSING STREAM SEGMENT DATA FROM LAST STRESS PERIOD



            AREAL INFILTRATION RATE
 READING ON UNIT   19 WITH FORMAT: (10F4.0)            

            1           2           3           4           5           6           7           8           9          10
 ........................................................................................................................
   1   1.0000E-08  2.0000E-08   0.000       0.000       0.000       0.000       0.000       0.000       0.000       0.000    
   2   2.0000E-08  1.0000E-08  2.0000E-08   0.000       0.000      8.0000E-08  8.0000E-08  5.0000E-08   0.000       0.000    
   3    0.000      5.0000E-08  1.0000E-08  1.0000E-08  8.0000E-08  8.0000E-08  5.0000E-08  5.0000E-08   0.000       0.000    
   4   8.0000E-08  5.0000E-08  1.0000E-08  1.0000E-08  1.0000E-08  1.0000E-08  1.0000E-08  1.0000E-08  2.0000E-08   0.000    
   5   8.0000E-08  5.0000E-08  1.0000E-08  1.0000E-08  1.0000E-08  1.0000E-08  1.0000E-08  1.0000E-08  1.0000E-08  1.0000E-08
   6   8.0000E-08  5.0000E-08  5.0000E-08  2.0000E-08  2.0000E-08  1.0000E-08  1.0000E-08  1.0000E-08  1.0000E-08  5.0000E-08
   7   8.0000E-08  5.0000E-08  5.0000E-08  2.0000E-08  2.0000E-08  1.0000E-08  1.0000E-08  2.0000E-08  2.0000E-08   0.000    
   8    0.000      5.0000E-08  5.0000E-08  2.0000E-08  2.0000E-08  1.0000E-08  1.0000E-08  2.0000E-08  5.0000E-08   0.000    
   9    0.000      5.0000E-08  5.0000E-08  2.0000E-08  2.0000E-08  1.0000E-08  1.0000E-08  2.0000E-08  5.0000E-08   0.000    
  10    0.000      5.0000E-08  5.0000E-08  2.0000E-08  2.0000E-08  1.0000E-08  1.0000E-08  2.0000E-08  5.0000E-08  8.0000E-08
  11    0.000      1.0000E-08  1.0000E-08  1.0000E-08  1.0000E-08  1.0000E-08  1.0000E-08  2.0000E-08  5.0000E-08   0.000    
  12   1.0000E-08  1.0000E-08  1.0000E-08  1.0000E-08  1.0000E-08  1.0000E-08  1.0000E-08  1.0000E-08  2.0000E-08   0.000    
  13   1.0000E-08  1.0000E-08  2.0000E-08  2.0000E-08  2.0000E-08  2.0000E-08  2.0000E-08  1.0000E-08  1.0000E-08   0.000    
  14    0.000      2.0000E-08  5.0000E-08  5.0000E-08  5.0000E-08  5.0000E-08  5.0000E-08  2.0000E-08  1.0000E-08   0.000    
  15    0.000       0.000      8.0000E-08  8.0000E-08  8.0000E-08  8.0000E-08   0.000       0.000       0.000       0.000    

USING ET RATE FROM PREVIOUS STRESS PERIOD. CURRENT PERIOD IS:       6

 USING ET EXTINCTION DEPTH FROM PREVIOUS STRESS PERIOD. CURRENT PERIOD IS:       6

 USING EXTINCTION WATER CONTENT FROM PREVIOUS STRESS PERIOD. CURRENT PERIOD IS:       6




 If any subsequent steady-state stress periods, min. and max. stages for each lake will be read in Record 9a.




 REUSING LAKE CONFIGURATION DATA FROM LAST STRESS PERIOD


 LAKE       PRECIP     EVAP     RUNOFF   WITHDRAW   BOTTOM     AREA
----------------------------------------------------------------------
   1     0.000E+00 4.000E-08 0.000E+00  0.000E+00 1.074E+03 2.500E+07




         C               INTERFACE CONDUCTANCES BETWEEN LAKE AND AQUIFER CELLS
   L     O          (IF TYPE = 6, CONDUCTANCE (L^2/T) IS BETWEEN AQUIFER CELL AND OVERLYING LAKE CELL.)
   A     L  L  T    (IF TYPE = 1 TO 4, CONDUCTANCES ARE PER UNIT SATURATED THICKNESS (L/T).)
   Y  R  U  A  Y
   E  O  M  K  P                        LAKEBED      C O N D U C T A N C E S
   R  W  N  E  E     DELTA Y   DELTA X  LEAKANCE   LAKEBED   AQUIFER  COMBINED
 _______________________________________________________________________________
   1  4  4  1  2    5.00E+03  5.00E+03  5.00E-02  2.50E+02  6.00E-03  6.00E-03
   1  3  5  1  3    5.00E+03  5.00E+03  5.00E-02  2.50E+02  1.20E-03  1.20E-03
   2  4  5  1  6    5.00E+03  5.00E+03  5.00E-02  1.25E+06  9.42E+00  9.42E+00
   1  5  5  1  4    5.00E+03  5.00E+03  5.00E-02  2.50E+02  6.00E-03  6.00E-03
   1  4  6  1  1    5.00E+03  5.00E+03  5.00E-02  2.50E+02  6.00E-03  6.00E-03
      LAKE     INFLOWING STREAM SEGMENT
         1                  9

 MAXIMUM NUMBER OF STREAMS INFLOWING TO A LAKE IS    1

      LAKE     OUTFLOWING STREAM SEGMENT
         1                 10

 MAXIMUM NUMBER OF STREAMS OUTFLOWING FROM A LAKE IS    1

 
 SOLVING FOR HEAD 
                                                   Max.-Head-Change                         Max.-Flux-Residual
  Residual-Control   Outer-Iter.   Inner-Iter.     Column Row Layer    Maximum-Head-Change  Column Row Layer    Maximum-Flux-Residual          L2-NORM 
          0                 1           2             5    4     2       0.1017755716E+01       5    4    2         0.2894127674E+02      0.4137033308E+02
          0                 2           2             5    4     2       0.7313045288E+00       5    4    2         0.2176128764E+02      0.2182166959E+02
          0                 3           2             5    4     2       0.1943934301E+00       5    4    2         0.5767859995E+01      0.5769551724E+01
          0                 4           2             5    4     2       0.5178682313E-01       5    4    2         0.1538126614E+01      0.1538186673E+01
          0                 5           2             5    4     2       0.1379538398E-01       5    4    2         0.4096756937E+00      0.4096999246E+00
          0                 6           2             5    4     2       0.3675119724E-02       5    4    2         0.1091437633E+00      0.1091496791E+00
          0                 7           1             5    4     2       0.9791441076E-03       5    4    2         0.2907845456E-01      0.2908005678E-01

    ------------------------------------------------
       NWT REQUIRED            7 OUTER ITERATIONS 
       AND A TOTAL OF         13 INNER ITERATIONS.
    ------------------------------------------------

 NO OUTPUT CONTROL FOR STRESS PERIOD    6   TIME STEP    1
 
 SOLVING FOR HEAD 
                                                   Max.-Head-Change                         Max.-Flux-Residual
  Residual-Control   Outer-Iter.   Inner-Iter.     Column Row Layer    Maximum-Head-Change  Column Row Layer    Maximum-Flux-Residual          L2-NORM 
          0                 1           2             5    4     2       0.1154376450E+01       5    4    2         0.3289931903E+02      0.4333477098E+02
          0                 2           2             5    4     2       0.1852173252E+00       5    4    2         0.5574530079E+01      0.5826960169E+01
          0                 3           2             5    4     2       0.4750029392E-01       5    4    2         0.1409243485E+01      0.1411916754E+01
          0                 4           2             5    4     2       0.1221199574E-01       5    4    2         0.3622750379E+00      0.3625109911E+00
          0                 5           2             5    4     2       0.3139822864E-02       5    4    2         0.9314273601E-01      0.9320377248E-01
          0                 6           1             5    4     2       0.8072565226E-03       5    4    2         0.2394729640E-01      0.2396299408E-01

    ------------------------------------------------
       NWT REQUIRED            6 OUTER ITERATIONS 
       AND A TOTAL OF         11 INNER ITERATIONS.
    ------------------------------------------------

 NO OUTPUT CONTROL FOR STRESS PERIOD    6   TIME STEP    2
 
 SOLVING FOR HEAD 
                                                   Max.-Head-Change                         Max.-Flux-Residual
  Residual-Control   Outer-Iter.   Inner-Iter.     Column Row Layer    Maximum-Head-Change  Column Row Layer    Maximum-Flux-Residual          L2-NORM 
          0                 1           2             5    4     2       0.7946969740E+00       5    4    2         0.2217484531E+02      0.3558958453E+02
          0                 2           2             5    4     2       0.7707714495E-01       5    4    2         0.2365511772E+01      0.2915547851E+01
          0                 3           2             5    4     2       0.1895310942E-01       5    4    2         0.5617108953E+00      0.5670315939E+00
          0                 4           2             5    4     2       0.4686687243E-02       5    4    2         0.1390661345E+00      0.1391767689E+00
          0                 5           2             5    4     2       0.1158960687E-02       5    4    2         0.3439027027E-01      0.3441505300E-01
          0                 6           1             5    4     2       0.2865664199E-03       5    4    2         0.8503463394E-02      0.8509553526E-02

    ------------------------------------------------
       NWT REQUIRED            6 OUTER ITERATIONS 
       AND A TOTAL OF         11 INNER ITERATIONS.
    ------------------------------------------------

 NO OUTPUT CONTROL FOR STRESS PERIOD    6   TIME STEP    3
 
 SOLVING FOR HEAD 
                                                   Max.-Head-Change                         Max.-Flux-Residual
  Residual-Control   Outer-Iter.   Inner-Iter.     Column Row Layer    Maximum-Head-Change  Column Row Layer    Maximum-Flux-Residual          L2-NORM 
          0                 1           2             5    4     2       0.5254527988E+00       5    4    2         0.1419402116E+02      0.2985005602E+02
          0                 2           2             5    3     2      -0.2589832279E-01       6   13    2         0.6798920091E+00      0.1566880430E+01
          0                 3           1             5    3     2       0.1284885013E-02       6   13    2        -0.3920947707E-01      0.6340865069E-01
          0                 4           1             5    4     2       0.3345128382E-04       5    4    2         0.9806043513E-03      0.1579060890E-02

    ------------------------------------------------
       NWT REQUIRED            4 OUTER ITERATIONS 
       AND A TOTAL OF          6 INNER ITERATIONS.
    ------------------------------------------------

 NO OUTPUT CONTROL FOR STRESS PERIOD    6   TIME STEP    4
 
 SOLVING FOR HEAD 
                                                   Max.-Head-Change                         Max.-Flux-Residual
  Residual-Control   Outer-Iter.   Inner-Iter.     Column Row Layer    Maximum-Head-Change  Column Row Layer    Maximum-Flux-Residual          L2-NORM 
          0                 1           2             6    4     2       0.4074060510E+00       4    4    2         0.1140367842E+02      0.2585702381E+02
          0                 2           2             5    4     2      -0.5155621718E-01       5    4    2        -0.1521631295E+01      0.2073332047E+01
          0                 3           2             5    4     2      -0.1317114253E-01       5    4    2        -0.4073965611E+00      0.4104219717E+00
          0                 4           2             5    4     2      -0.3338850403E-02       5    4    2        -0.1029895095E+00      0.1030035679E+00
          0                 5           1             5    4     2      -0.8464449458E-03       5    4    2        -0.2610776755E-01      0.2610998047E-01

    ------------------------------------------------
       NWT REQUIRED            5 OUTER ITERATIONS 
       AND A TOTAL OF          9 INNER ITERATIONS.
    ------------------------------------------------

 NO OUTPUT CONTROL FOR STRESS PERIOD    6   TIME STEP    5
 
 SOLVING FOR HEAD 
                                                   Max.-Head-Change                         Max.-Flux-Residual
  Residual-Control   Outer-Iter.   Inner-Iter.     Column Row Layer    Maximum-Head-Change  Column Row Layer    Maximum-Flux-Residual          L2-NORM 
          0                 1           2             6    4     2       0.3755655516E+00       6    4    2         0.1049168378E+02      0.2312617821E+02
          0                 2           2             5    4     2      -0.8797841020E-01       5    4    2        -0.2651456619E+01      0.2942676226E+01
          0                 3           2             5    4     2      -0.2137398630E-01       5    4    2        -0.6602405306E+00      0.6615117381E+00
          0                 4           2             5    4     2      -0.5168863846E-02       5    4    2        -0.1594278290E+00      0.1594439891E+00
          0                 5           2             5    4     2      -0.1249848266E-02       5    4    2        -0.3854956169E-01      0.3855244508E-01
          0                 6           1             5    4     2      -0.3020970592E-03       5    4    2        -0.9316759478E-02      0.9317466207E-02

    ------------------------------------------------
       NWT REQUIRED            6 OUTER ITERATIONS 
       AND A TOTAL OF         11 INNER ITERATIONS.
    ------------------------------------------------

 NO OUTPUT CONTROL FOR STRESS PERIOD    6   TIME STEP    6
 
 SOLVING FOR HEAD 
                                                   Max.-Head-Change                         Max.-Flux-Residual
  Residual-Control   Outer-Iter.   Inner-Iter.     Column Row Layer    Maximum-Head-Change  Column Row Layer    Maximum-Flux-Residual          L2-NORM 
          0                 1           2             6    4     2       0.3383244095E+00       6    4    2         0.9601841269E+01      0.2185908650E+02
          0                 2           2             5    4     2      -0.1178806768E+00       5    4    2        -0.3454272627E+01      0.3654055311E+01
          0                 3           2             5    4     2      -0.2362988256E-01       5    4    2        -0.7023723494E+00      0.7034516673E+00
          0                 4           2             5    4     2      -0.4723779179E-02       5    4    2        -0.1402293173E+00      0.1402944915E+00
          0                 5           1             5    4     2      -0.9445789085E-03       5    4    2        -0.2804146249E-01      0.2805382172E-01

    ------------------------------------------------
       NWT REQUIRED            5 OUTER ITERATIONS 
       AND A TOTAL OF          9 INNER ITERATIONS.
    ------------------------------------------------

 NO OUTPUT CONTROL FOR STRESS PERIOD    6   TIME STEP    7
 
 SOLVING FOR HEAD 
                                                   Max.-Head-Change                         Max.-Flux-Residual
  Residual-Control   Outer-Iter.   Inner-Iter.     Column Row Layer    Maximum-Head-Change  Column Row Layer    Maximum-Flux-Residual          L2-NORM 
          0                 1           2             5    3     2       0.3080624654E+00       6    4    2         0.8586382532E+01      0.2086298399E+02
          0                 2           2             5    4     2      -0.1266884380E+00       5    4    2        -0.3720648683E+01      0.3878199866E+01
          0                 3           2             5    4     2      -0.2350282081E-01       5    4    2        -0.6982445795E+00      0.6991651982E+00
          0                 4           2             5    4     2      -0.4349801706E-02       5    4    2        -0.1290753650E+00      0.1291432609E+00
          0                 5           1             5    4     2      -0.8052655684E-03       5    4    2        -0.2389590091E-01      0.2390799945E-01

    ------------------------------------------------
       NWT REQUIRED            5 OUTER ITERATIONS 
       AND A TOTAL OF          9 INNER ITERATIONS.
    ------------------------------------------------

 NO OUTPUT CONTROL FOR STRESS PERIOD    6   TIME STEP    8
 
 SOLVING FOR HEAD 
                                                   Max.-Head-Change                         Max.-Flux-Residual
  Residual-Control   Outer-Iter.   Inner-Iter.     Column Row Layer    Maximum-Head-Change  Column Row Layer    Maximum-Flux-Residual          L2-NORM 
          0                 1           2             5    3     2       0.2768521441E+00       5    4    2        -0.9111993402E+01      0.2044480745E+02
          0                 2           2             5    4     2      -0.1230757754E+00       5    4    2        -0.3617030007E+01      0.3748407710E+01
          0                 3           2             5    4     2      -0.2074260910E-01       5    4    2        -0.6159356927E+00      0.6166947190E+00
          0                 4           2             5    4     2      -0.3487639016E-02       5    4    2        -0.1034386491E+00      0.1035030021E+00
          0                 5           1             5    4     2      -0.5866027183E-03       5    4    2        -0.1739823041E-01      0.1740875988E-01

    ------------------------------------------------
       NWT REQUIRED            5 OUTER ITERATIONS 
       AND A TOTAL OF          9 INNER ITERATIONS.
    ------------------------------------------------

 NO OUTPUT CONTROL FOR STRESS PERIOD    6   TIME STEP    9
 
 SOLVING FOR HEAD 
                                                   Max.-Head-Change                         Max.-Flux-Residual
  Residual-Control   Outer-Iter.   Inner-Iter.     Column Row Layer    Maximum-Head-Change  Column Row Layer    Maximum-Flux-Residual          L2-NORM 
          0                 1           2             5    4     2      -0.2925491999E+00       5    4    2        -0.9511914460E+01      0.2317110850E+02
          0                 2           2             5    4     2      -0.9092568349E-01       5    4    2        -0.2663395771E+01      0.3037725435E+01
          0                 3           2             5    4     2      -0.1356853280E-01       5    4    2        -0.4024949531E+00      0.4082925765E+00
          0                 4           2             5    4     2      -0.2014905052E-02       5    4    2        -0.5967643970E-01      0.5973655212E-01
          0                 5           1             5    4     2      -0.2995140846E-03       5    4    2        -0.8871332764E-02      0.8877908588E-02

    ------------------------------------------------
       NWT REQUIRED            5 OUTER ITERATIONS 
       AND A TOTAL OF          9 INNER ITERATIONS.
    ------------------------------------------------

 NO OUTPUT CONTROL FOR STRESS PERIOD    6   TIME STEP   10
 
 SOLVING FOR HEAD 
                                                   Max.-Head-Change                         Max.-Flux-Residual
  Residual-Control   Outer-Iter.   Inner-Iter.     Column Row Layer    Maximum-Head-Change  Column Row Layer    Maximum-Flux-Residual          L2-NORM 
          0                 1           2             4    3     2       0.3720774724E+00       5    4    2        -0.1092732613E+02      0.2980600661E+02
          0                 2           2             5    4     2      -0.5381949871E-01       5    4    2        -0.1564650274E+01      0.2728050302E+01
          0                 3           2             5    4     2      -0.7562207497E-02       5    4    2        -0.2244649445E+00      0.2515100175E+00
          0                 4           1             5    4     2      -0.1055062899E-02       5    4    2        -0.3123453675E-01      0.3134072861E-01
          0                 5           1             5    4     2      -0.1475655303E-03       5    4    2        -0.4369203184E-02      0.4372918551E-02

    ------------------------------------------------
       NWT REQUIRED            5 OUTER ITERATIONS 
       AND A TOTAL OF          8 INNER ITERATIONS.
    ------------------------------------------------

 NO OUTPUT CONTROL FOR STRESS PERIOD    6   TIME STEP   11
 
 SOLVING FOR HEAD 
                                                   Max.-Head-Change                         Max.-Flux-Residual
  Residual-Control   Outer-Iter.   Inner-Iter.     Column Row Layer    Maximum-Head-Change  Column Row Layer    Maximum-Flux-Residual          L2-NORM 
          0                 1           2             5    4     2      -0.4336183550E+00       5    4    2        -0.1351439898E+02      0.2874947808E+02
          0                 2           2             5    4     2      -0.5266876906E-01       5    4    2        -0.1533195122E+01      0.2549073046E+01
          0                 3           2             5    4     2      -0.6630791252E-02       5    4    2        -0.1967278887E+00      0.2225210657E+00
          0                 4           1             5    4     2      -0.8257765831E-03       5    4    2        -0.2443188964E-01      0.2454108579E-01

    ------------------------------------------------
       NWT REQUIRED            4 OUTER ITERATIONS 
       AND A TOTAL OF          7 INNER ITERATIONS.
    ------------------------------------------------

 NO OUTPUT CONTROL FOR STRESS PERIOD    6   TIME STEP   12
 
 SOLVING FOR HEAD 
                                                   Max.-Head-Change                         Max.-Flux-Residual
  Residual-Control   Outer-Iter.   Inner-Iter.     Column Row Layer    Maximum-Head-Change  Column Row Layer    Maximum-Flux-Residual          L2-NORM 
          0                 1           2             5    4     2      -0.4406201119E+00       5    4    2        -0.1363450146E+02      0.2719901824E+02
          0                 2           2             5    4     2      -0.4039256508E-01       5    4    2        -0.1172260859E+01      0.2184243936E+01
          0                 3           2             5    4     2      -0.3870448507E-02       5    4    2        -0.1148486230E+00      0.1493494750E+00
          0                 4           1             5    4     2      -0.3644581617E-03       5    4    2        -0.1076889262E-01      0.1095313282E-01

    ------------------------------------------------
       NWT REQUIRED            4 OUTER ITERATIONS 
       AND A TOTAL OF          7 INNER ITERATIONS.
    ------------------------------------------------

 NO OUTPUT CONTROL FOR STRESS PERIOD    6   TIME STEP   13
 
 SOLVING FOR HEAD 
                                                   Max.-Head-Change                         Max.-Flux-Residual
  Residual-Control   Outer-Iter.   Inner-Iter.     Column Row Layer    Maximum-Head-Change  Column Row Layer    Maximum-Flux-Residual          L2-NORM 
          0                 1           2             4    3     2       0.4650062117E+00       4    3    2         0.1258504387E+02      0.3307682130E+02
          0                 2           2             4   13     2       0.8674037668E-01       4   13    2         0.2007728807E+01      0.3470701723E+01
          0                 3           2             4   13     2      -0.1105133076E-01       4   13    2        -0.2876970046E+00      0.3406251804E+00
          0                 4           1             4   13     2       0.5235403344E-03       4   13    2         0.1411205705E-01      0.1838743098E-01

    ------------------------------------------------
       NWT REQUIRED            4 OUTER ITERATIONS 
       AND A TOTAL OF          7 INNER ITERATIONS.
    ------------------------------------------------

 NO OUTPUT CONTROL FOR STRESS PERIOD    6   TIME STEP   14
 
 SOLVING FOR HEAD 
                                                   Max.-Head-Change                         Max.-Flux-Residual
  Residual-Control   Outer-Iter.   Inner-Iter.     Column Row Layer    Maximum-Head-Change  Column Row Layer    Maximum-Flux-Residual          L2-NORM 
          0                 1           2             3    3     2       0.5549586009E+00       3    3    2         0.1489439940E+02      0.3699581419E+02
          0                 2           2             5   13     2       0.9350634025E-01       5   13    2         0.2033569466E+01      0.3952616353E+01
          0                 3           2             5   13     2      -0.1220847701E-01       5   13    2        -0.2968632673E+00      0.3467112711E+00
          0                 4           1             5   13     2       0.6046200507E-03       5   13    2         0.1516384326E-01      0.1674134380E-01

    ------------------------------------------------
       NWT REQUIRED            4 OUTER ITERATIONS 
       AND A TOTAL OF          7 INNER ITERATIONS.
    ------------------------------------------------

 NO OUTPUT CONTROL FOR STRESS PERIOD    6   TIME STEP   15



 STREAM LISTING     PERIOD      6   STEP       15

 LAYER ROW COL. STREAM  RCH.  FLOW INTO     FLOW TO   FLOW OUT OF   OVRLND.     DIRECT     STREAM       STREAM     STREAM     STREAM   STREAMBED  STREAMBED
                SEG.NO.  NO.  STRM. RCH.    AQUIFER    STRM. RCH.    RUNOFF     PRECIP       ET          HEAD       DEPTH      WIDTH   CONDCTNC.   GRADIENT

   2    1    1     1     1    9.5800E+02  8.0582E+00   9.4994E+02  0.000E+00  0.000E+00  0.000E+00  1.09722E+03  4.171E+00  5.138E+01  2.312E+00  1.162E+00
   2    2    2     1     2    9.4994E+02  2.0174E+01   9.2977E+02  0.000E+00  0.000E+00  0.000E+00  1.09221E+03  4.148E+00  5.109E+01  3.576E+00  1.880E+00
   2    3    3     1     3    9.2977E+02  2.1622E+01   9.0815E+02  0.000E+00  0.000E+00  0.000E+00  1.08653E+03  4.113E+00  5.066E+01  3.040E+00  2.371E+00
   2    3    4     1     4    9.0815E+02  1.9733E+01   8.8841E+02  0.000E+00  0.000E+00  0.000E+00  1.08149E+03  4.079E+00  5.023E+01  2.788E+00  2.360E+00
   2    4    5     2     1    8.7841E+02  0.0000E+00   8.7841E+02  0.000E+00  0.000E+00  0.000E+00  1.08212E+03  1.018E+01  1.200E+01  7.800E-01  4.394E+00
   2    5    6     2     2    8.7841E+02  7.8710E+00   8.7054E+02  0.000E+00  0.000E+00  0.000E+00  1.07663E+03  1.012E+01  1.200E+01  6.000E-01  4.373E+00
   2    6    6     2     3    8.7054E+02  7.8379E+00   8.6270E+02  0.000E+00  0.000E+00  0.000E+00  1.07186E+03  1.006E+01  1.200E+01  6.000E-01  4.354E+00
   2    7    6     2     4    8.6270E+02  7.8047E+00   8.5490E+02  0.000E+00  0.000E+00  0.000E+00  1.06708E+03  1.001E+01  1.200E+01  6.000E-01  4.336E+00
   2    8    6     2     5    8.5490E+02  7.7716E+00   8.4713E+02  0.000E+00  0.000E+00  0.000E+00  1.06231E+03  9.953E+00  1.200E+01  6.000E-01  4.318E+00
   2    3    5     3     1    1.0000E+01  2.8252E+00   7.1748E+00  0.000E+00  0.000E+00  0.000E+00  1.07555E+03  1.909E+00  9.636E+00  7.227E-01  1.955E+00
   2    3    6     3     2    7.1748E+00  2.4905E+00   4.6843E+00  0.000E+00  0.000E+00  0.000E+00  1.07264E+03  1.727E+00  8.909E+00  6.682E-01  1.864E+00
   2    3    7     3     3    4.6843E+00  1.9718E+00   2.7125E+00  0.000E+00  0.000E+00  0.000E+00  1.06987E+03  1.555E+00  8.218E+00  5.547E-01  1.777E+00
   2    4    8     3     4    2.7125E+00  2.2567E+00   4.5579E-01  0.000E+00  0.000E+00  0.000E+00  1.06682E+03  1.364E+00  7.455E+00  6.709E-01  1.682E+00
   2    5    8     3     5    4.5579E-01  4.5579E-01   0.0000E+00  0.000E+00  0.000E+00  0.000E+00  1.06362E+03  0.000E+00  6.655E+00  4.991E-01  1.582E+00
   2    6    8     3     6    0.0000E+00  0.0000E+00   0.0000E+00  0.000E+00  0.000E+00  0.000E+00  1.06055E+03  0.000E+00  6.145E+00  1.844E-01  1.000E+00
   2    5   10     4     1    1.0000E+01  9.0525E-01   9.0947E+00  0.000E+00  0.000E+00  0.000E+00  1.07835E+03  6.210E-01  1.000E+01  2.500E-01  1.207E+00
   2    5    9     4     2    9.0947E+00  1.7835E+00   7.3113E+00  0.000E+00  0.000E+00  0.000E+00  1.07148E+03  5.670E-01  1.000E+01  5.000E-01  1.189E+00
   2    6    8     4     3    7.3113E+00  1.2257E+00   6.0855E+00  0.000E+00  0.000E+00  0.000E+00  1.06368E+03  5.021E-01  1.000E+01  3.500E-01  1.167E+00
   2    6    8     5     1    6.0855E+00  1.4716E+00   4.6139E+00  0.000E+00  0.000E+00  0.000E+00  1.05854E+03  5.396E-01  1.039E+01  4.158E-01  1.180E+00
   2    7    7     5     2    4.6139E+00  1.4897E+00   3.1242E+00  0.000E+00  0.000E+00  0.000E+00  1.05398E+03  4.817E-01  8.557E+00  4.279E-01  1.161E+00
   2    8    7     5     3    3.1242E+00  8.2855E-01   2.2957E+00  0.000E+00  0.000E+00  0.000E+00  1.04968E+03  4.253E-01  6.911E+00  2.419E-01  1.142E+00
   2    8    6     5     4    2.2957E+00  4.9455E-01   1.8011E+00  0.000E+00  0.000E+00  0.000E+00  1.04664E+03  3.856E-01  5.843E+00  1.461E-01  1.129E+00
   2    9    6     6     1    8.4893E+02  7.8125E+00   8.4112E+02  0.000E+00  0.000E+00  0.000E+00  1.05275E+03  1.002E+01  1.200E+01  6.000E-01  4.340E+00
   2   10    7     6     2    8.4112E+02  7.7787E+00   8.3334E+02  0.000E+00  0.000E+00  0.000E+00  1.04815E+03  9.965E+00  1.200E+01  6.000E-01  4.322E+00
   2   11    7     6     3    8.3334E+02  7.2721E+00   8.2607E+02  0.000E+00  0.000E+00  0.000E+00  1.04355E+03  9.910E+00  1.200E+01  6.000E-01  4.040E+00
   2   12    7     6     4    8.2607E+02  5.6925E+00   8.2037E+02  0.000E+00  0.000E+00  0.000E+00  1.03895E+03  9.863E+00  1.200E+01  6.000E-01  3.163E+00
   2   13    7     6     5    8.2037E+02  1.4704E+00   8.1890E+02  0.000E+00  0.000E+00  0.000E+00  1.03575E+03  9.837E+00  1.200E+01  2.400E-01  2.042E+00
   2   14    9     7     1    1.5000E+02  2.7911E+00   1.4721E+02  0.000E+00  0.000E+00  0.000E+00  1.03986E+03  2.284E+00  5.528E+01  5.591E+00  1.664E-01
   2   13    8     7     2    1.4721E+02  3.5898E+00   1.4362E+02  0.000E+00  0.000E+00  0.000E+00  1.03477E+03  2.267E+00  5.520E+01  6.141E+00  1.949E-01
   2   13    7     7     3    1.4362E+02  3.1434E-01   1.4330E+02  0.000E+00  0.000E+00  0.000E+00  1.02968E+03  2.256E+00  5.515E+01  5.578E+00  1.879E-02
   2   13    6     8     1    9.6221E+02  9.7206E+00   9.5688E+02  4.394E+00  0.000E+00  0.000E+00  1.02740E+03  5.529E+00  6.445E+01  6.625E+00  4.891E-01
   2   13    5     8     2    9.5688E+02  6.3672E+00   9.5491E+02  4.394E+00  0.000E+00  0.000E+00  1.02115E+03  5.520E+00  6.442E+01  6.621E+00  3.206E-01
   2   13    4     8     3    9.5491E+02  3.8395E+00   9.5546E+02  4.394E+00  0.000E+00  0.000E+00  1.01489E+03  5.519E+00  6.441E+01  6.620E+00  1.933E-01
   2   13    3     8     4    9.5546E+02  2.7840E+00   9.5707E+02  4.394E+00  0.000E+00  0.000E+00  1.00865E+03  5.521E+00  6.442E+01  6.621E+00  1.402E-01
   2   13    2     8     5    9.5707E+02  3.6236E+00   9.5785E+02  4.394E+00  0.000E+00  0.000E+00  1.00240E+03  5.524E+00  6.443E+01  6.623E+00  1.824E-01
   2   13    1     8     6    9.5785E+02  2.7462E+00   9.5774E+02  2.637E+00  0.000E+00  0.000E+00  9.97400E+02  5.525E+00  6.444E+01  3.974E+00  2.304E-01
   2    4    5     9     1    0.0000E+00  0.0000E+00   0.0000E+00  0.000E+00  0.000E+00  0.000E+00  1.06000E+03  5.197E-04  2.000E+01  2.000E-03 -1.569E+00
   2    4    5    10     1    0.0000E+00  0.0000E+00   0.0000E+00  0.000E+00  0.000E+00  0.000E+00  1.08000E+03  0.000E+00  2.000E+01  2.000E-03  1.000E+00





UNSATURATED ZONE PACKAGE VOLUMETRIC BUDGET FOR  TIME STEP    15 STRESS PERIOD    6
  ------------------------------------------------------------------------------



     CUMULATIVE VOLUMES      L**3       RATES FOR THIS TIME STEP      L**3/T
     ------------------                 ------------------------

           IN:                                      IN:
           ---                                      ---
        INFILTRATION =  1320318384.9944          INFILTRATION =          83.4829

          OUT:                                     OUT:
          ----                                     ----
              UZF ET =  1086231139.6654                UZF ET =          59.3633
        UZF RECHARGE =   601237880.4474          UZF RECHARGE =          31.9610

            IN - OUT =  -367150635.1184              IN - OUT =          -7.8414

          STORAGE:                                 STORAGE:
          --------                                 --------
      STORAGE CHANGE =  -367247275.0224        STORAGE CHANGE =          -7.7992

 PERCENT DISCREPANCY IS DIFFERENCE BETWEEN IN-OUT MINUS CHANGE IN STORAGE
 DIVIDED BY THE AVERAGE OF IN AND OUT TIMES 100

 PERCENT DISCREPANCY =           0.00     PERCENT DISCREPANCY =          -0.05






1
  VOLUMETRIC BUDGET FOR ENTIRE MODEL AT END OF TIME STEP   15, STRESS PERIOD   6
  ------------------------------------------------------------------------------

     CUMULATIVE VOLUMES      L**3       RATES FOR THIS TIME STEP      L**3/T
     ------------------                 ------------------------

           IN:                                      IN:
           ---                                      ---
             STORAGE =    99870312.0000               STORAGE =          10.4251
       CONSTANT HEAD =           0.0000         CONSTANT HEAD =           0.0000
               WELLS =           0.0000                 WELLS =           0.0000
     HEAD DEP BOUNDS =     3382471.5000       HEAD DEP BOUNDS =           0.2141
      STREAM LEAKAGE =  1119011200.0000        STREAM LEAKAGE =         184.8730
       LAKE  SEEPAGE =           0.0000         LAKE  SEEPAGE =           0.0000
        UZF RECHARGE =   601237824.0000          UZF RECHARGE =          31.9610
               GW ET =           0.0000                 GW ET =           0.0000
     SURFACE LEAKAGE =           0.0000       SURFACE LEAKAGE =           0.0000

            TOTAL IN =  1823501824.0000              TOTAL IN =         227.4732

          OUT:                                     OUT:
          ----                                     ----
             STORAGE =  1066225792.0000               STORAGE =         197.7196
       CONSTANT HEAD =           0.0000         CONSTANT HEAD =           0.0000
               WELLS =   236520000.0000                 WELLS =           0.0000
     HEAD DEP BOUNDS =     4694771.5000       HEAD DEP BOUNDS =           0.3309
      STREAM LEAKAGE =   286220320.0000        STREAM LEAKAGE =           0.0000
       LAKE  SEEPAGE =           0.0000         LAKE  SEEPAGE =           0.0000
        UZF RECHARGE =           0.0000          UZF RECHARGE =           0.0000
               GW ET =   204162288.0000                 GW ET =          16.2467
     SURFACE LEAKAGE =    51995348.0000       SURFACE LEAKAGE =          23.4492

           TOTAL OUT =  1849818624.0000             TOTAL OUT =         237.7465

            IN - OUT =   -26316800.0000              IN - OUT =         -10.2733

 PERCENT DISCREPANCY =          -1.43     PERCENT DISCREPANCY =          -4.42






         TIME SUMMARY AT END OF TIME STEP   15 IN STRESS PERIOD    6
                    SECONDS     MINUTES      HOURS       DAYS        YEARS
                    -----------------------------------------------------------
   TIME STEP LENGTH 1.75200E+05  2920.0      48.667      2.0278     5.55175E-03
 STRESS PERIOD TIME 2.62800E+06  43800.      730.00      30.417     8.32763E-02
         TOTAL TIME 1.57680E+07 2.62800E+05  4380.0      182.50     0.49966    
1
1
                            STRESS PERIOD NO.    7, LENGTH =   2628000.    
                            -----------------------------------------------

                              NUMBER OF TIME STEPS =    15

                               MULTIPLIER FOR DELT =     1.000

                            INITIAL TIME STEP SIZE =   175200.0    

 WELL NO.  LAYER   ROW   COL   STRESS RATE         
 --------------------------------------------------
      1      2      6      4      -2.000    
      2      2      6      5      -2.000    
      3      2      7      4      -2.000    
      4      2      7      5      -2.000    
      5      2      8      4      -2.000    
      6      2      8      5      -2.000    
      7      2      9      4      -2.000    
      8      2      9      5      -2.000    
      9      2     10      4      -2.000    
     10      2     10      5      -2.000    

     10 WELLS

 REUSING NON-PARAMETER GHB CELLS FROM LAST STRESS PERIOD

      2 GHB CELLS

 REUSING STREAM SEGMENT DATA FROM LAST STRESS PERIOD



            AREAL INFILTRATION RATE
 READING ON UNIT   19 WITH FORMAT: (10F4.0)            

            1           2           3           4           5           6           7           8           9          10
 ........................................................................................................................
   1   3.0000E-09  6.0000E-09   0.000       0.000       0.000       0.000       0.000       0.000       0.000       0.000    
   2   6.0000E-09  3.0000E-09  6.0000E-09   0.000       0.000      2.4000E-08  2.4000E-08  1.5000E-08   0.000       0.000    
   3    0.000      1.5000E-08  3.0000E-09  3.0000E-09  2.4000E-08  2.4000E-08  1.5000E-08  1.5000E-08   0.000       0.000    
   4   2.4000E-08  1.5000E-08  3.0000E-09  3.0000E-09  3.0000E-09  3.0000E-09  3.0000E-09  3.0000E-09  6.0000E-09   0.000    
   5   2.4000E-08  1.5000E-08  3.0000E-09  3.0000E-09  3.0000E-09  3.0000E-09  3.0000E-09  3.0000E-09  3.0000E-09  3.0000E-09
   6   2.4000E-08  1.5000E-08  1.5000E-08  6.0000E-09  6.0000E-09  3.0000E-09  3.0000E-09  3.0000E-09  3.0000E-09  1.5000E-08
   7   2.4000E-08  1.5000E-08  1.5000E-08  6.0000E-09  6.0000E-09  3.0000E-09  3.0000E-09  6.0000E-09  6.0000E-09   0.000    
   8    0.000      1.5000E-08  1.5000E-08  6.0000E-09  6.0000E-09  3.0000E-09  3.0000E-09  6.0000E-09  1.5000E-08   0.000    
   9    0.000      1.5000E-08  1.5000E-08  6.0000E-09  6.0000E-09  3.0000E-09  3.0000E-09  6.0000E-09  1.5000E-08   0.000    
  10    0.000      1.5000E-08  1.5000E-08  6.0000E-09  6.0000E-09  3.0000E-09  3.0000E-09  6.0000E-09  1.5000E-08  2.4000E-08
  11    0.000      3.0000E-09  3.0000E-09  3.0000E-09  3.0000E-09  3.0000E-09  3.0000E-09  6.0000E-09  1.5000E-08   0.000    
  12   3.0000E-09  3.0000E-09  3.0000E-09  3.0000E-09  3.0000E-09  3.0000E-09  3.0000E-09  3.0000E-09  6.0000E-09   0.000    
  13   3.0000E-09  3.0000E-09  6.0000E-09  6.0000E-09  6.0000E-09  6.0000E-09  6.0000E-09  3.0000E-09  3.0000E-09   0.000    
  14    0.000      6.0000E-09  1.5000E-08  1.5000E-08  1.5000E-08  1.5000E-08  1.5000E-08  6.0000E-09  3.0000E-09   0.000    
  15    0.000       0.000      2.4000E-08  2.4000E-08  2.4000E-08  2.4000E-08   0.000       0.000       0.000       0.000    

USING ET RATE FROM PREVIOUS STRESS PERIOD. CURRENT PERIOD IS:       7

 USING ET EXTINCTION DEPTH FROM PREVIOUS STRESS PERIOD. CURRENT PERIOD IS:       7

 USING EXTINCTION WATER CONTENT FROM PREVIOUS STRESS PERIOD. CURRENT PERIOD IS:       7




 If any subsequent steady-state stress periods, min. and max. stages for each lake will be read in Record 9a.




 REUSING LAKE CONFIGURATION DATA FROM LAST STRESS PERIOD


 LAKE       PRECIP     EVAP     RUNOFF   WITHDRAW   BOTTOM     AREA
----------------------------------------------------------------------
   1     0.000E+00 4.000E-08 0.000E+00  0.000E+00 1.074E+03 2.500E+07




         C               INTERFACE CONDUCTANCES BETWEEN LAKE AND AQUIFER CELLS
   L     O          (IF TYPE = 6, CONDUCTANCE (L^2/T) IS BETWEEN AQUIFER CELL AND OVERLYING LAKE CELL.)
   A     L  L  T    (IF TYPE = 1 TO 4, CONDUCTANCES ARE PER UNIT SATURATED THICKNESS (L/T).)
   Y  R  U  A  Y
   E  O  M  K  P                        LAKEBED      C O N D U C T A N C E S
   R  W  N  E  E     DELTA Y   DELTA X  LEAKANCE   LAKEBED   AQUIFER  COMBINED
 _______________________________________________________________________________
   1  4  4  1  2    5.00E+03  5.00E+03  5.00E-02  2.50E+02  6.00E-03  6.00E-03
   1  3  5  1  3    5.00E+03  5.00E+03  5.00E-02  2.50E+02  1.20E-03  1.20E-03
   2  4  5  1  6    5.00E+03  5.00E+03  5.00E-02  1.25E+06  9.42E+00  9.42E+00
   1  5  5  1  4    5.00E+03  5.00E+03  5.00E-02  2.50E+02  6.00E-03  6.00E-03
   1  4  6  1  1    5.00E+03  5.00E+03  5.00E-02  2.50E+02  6.00E-03  6.00E-03
      LAKE     INFLOWING STREAM SEGMENT
         1                  9

 MAXIMUM NUMBER OF STREAMS INFLOWING TO A LAKE IS    1

      LAKE     OUTFLOWING STREAM SEGMENT
         1                 10

 MAXIMUM NUMBER OF STREAMS OUTFLOWING FROM A LAKE IS    1

 
 SOLVING FOR HEAD 
                                                   Max.-Head-Change                         Max.-Flux-Residual
  Residual-Control   Outer-Iter.   Inner-Iter.     Column Row Layer    Maximum-Head-Change  Column Row Layer    Maximum-Flux-Residual          L2-NORM 
          0                 1           2             3    3     2       0.5348791148E+00       3    3    2         0.1440726863E+02      0.3252709781E+02
          0                 2           2             3    3     2      -0.5031678952E-01       3    3    2        -0.1417101507E+01      0.2695871476E+01
          0                 3           2             3    3     2       0.2814295012E-02       3    3    2         0.8267383242E-01      0.1495501780E+00
          0                 4           1             3    3     2      -0.5415207058E-04       4    3    2        -0.1655899839E-02      0.3365395055E-02

    ------------------------------------------------
       NWT REQUIRED            4 OUTER ITERATIONS 
       AND A TOTAL OF          7 INNER ITERATIONS.
    ------------------------------------------------

 NO OUTPUT CONTROL FOR STRESS PERIOD    7   TIME STEP    1
 
 SOLVING FOR HEAD 
                                                   Max.-Head-Change                         Max.-Flux-Residual
  Residual-Control   Outer-Iter.   Inner-Iter.     Column Row Layer    Maximum-Head-Change  Column Row Layer    Maximum-Flux-Residual          L2-NORM 
          0                 1           2             3    3     2       0.4833752105E+00       3    3    2         0.1299428198E+02      0.2844260073E+02
          0                 2           2             3    3     2      -0.4551061503E-01       3    3    2        -0.1280674907E+01      0.2339748508E+01
          0                 3           2             3    3     2       0.2553530066E-02       3    3    2         0.7501269812E-01      0.1295767240E+00
          0                 4           1             3    3     2      -0.4972182804E-04       3    3    2        -0.1518504835E-02      0.2783508856E-02

    ------------------------------------------------
       NWT REQUIRED            4 OUTER ITERATIONS 
       AND A TOTAL OF          7 INNER ITERATIONS.
    ------------------------------------------------

 NO OUTPUT CONTROL FOR STRESS PERIOD    7   TIME STEP    2
 
 SOLVING FOR HEAD 
                                                   Max.-Head-Change                         Max.-Flux-Residual
  Residual-Control   Outer-Iter.   Inner-Iter.     Column Row Layer    Maximum-Head-Change  Column Row Layer    Maximum-Flux-Residual          L2-NORM 
          0                 1           2             5   13     2      -0.4011995733E+00       5    4    2        -0.1183825920E+02      0.2433790380E+02
          0                 2           2             5   13     2       0.8538105641E-01       5   13    2         0.3625395259E+01      0.4293882154E+01
          0                 3           2             5   13     2      -0.6108215052E-02       5   13    2        -0.2810936009E+00      0.3120884908E+00
          0                 4           1             2   13     2      -0.1197701958E-03       5   13    2         0.4725077844E-02      0.7434416710E-02

    ------------------------------------------------
       NWT REQUIRED            4 OUTER ITERATIONS 
       AND A TOTAL OF          7 INNER ITERATIONS.
    ------------------------------------------------

 NO OUTPUT CONTROL FOR STRESS PERIOD    7   TIME STEP    3
 
 SOLVING FOR HEAD 
                                                   Max.-Head-Change                         Max.-Flux-Residual
  Residual-Control   Outer-Iter.   Inner-Iter.     Column Row Layer    Maximum-Head-Change  Column Row Layer    Maximum-Flux-Residual          L2-NORM 
          0                 1           2             5    4     2      -0.3410784191E+00       5    4    2        -0.1035876137E+02      0.1744540211E+02
          0                 2           2             6   13     2       0.1397661214E-01       6   13    2         0.4962419010E+00      0.1071638810E+01
          0                 3           1             6   13     2      -0.7704159627E-03       6   13    2        -0.2846361955E-01      0.5201653770E-01

    ------------------------------------------------
       NWT REQUIRED            3 OUTER ITERATIONS 
       AND A TOTAL OF          5 INNER ITERATIONS.
    ------------------------------------------------

 NO OUTPUT CONTROL FOR STRESS PERIOD    7   TIME STEP    4
 
 SOLVING FOR HEAD 
                                                   Max.-Head-Change                         Max.-Flux-Residual
  Residual-Control   Outer-Iter.   Inner-Iter.     Column Row Layer    Maximum-Head-Change  Column Row Layer    Maximum-Flux-Residual          L2-NORM 
          0                 1           2             5    4     2      -0.2993062963E+00       5    4    2        -0.9059969373E+01      0.1545002171E+02
          0                 2           2             4    3     2      -0.1220301698E-01       6   13    2         0.3909828107E+00      0.9415094706E+00
          0                 3           1             4    3     2       0.6984352962E-03       6   13    2        -0.2242348649E-01      0.4570392397E-01

    ------------------------------------------------
       NWT REQUIRED            3 OUTER ITERATIONS 
       AND A TOTAL OF          5 INNER ITERATIONS.
    ------------------------------------------------

 OUTPUT CONTROL FOR STRESS PERIOD    7   TIME STEP    5
    PRINT BUDGET
    SAVE BUDGET

            WELLS   PERIOD    7   STEP   5
 WELL      1   LAYER   2   ROW     6   COL     4   RATE    -2.00000    
 WELL      2   LAYER   2   ROW     6   COL     5   RATE    -2.00000    
 WELL      3   LAYER   2   ROW     7   COL     4   RATE    -2.00000    
 WELL      4   LAYER   2   ROW     7   COL     5   RATE    -2.00000    
 WELL      5   LAYER   2   ROW     8   COL     4   RATE    -2.00000    
 WELL      6   LAYER   2   ROW     8   COL     5   RATE    -2.00000    
 WELL      7   LAYER   2   ROW     9   COL     4   RATE    -2.00000    
 WELL      8   LAYER   2   ROW     9   COL     5   RATE    -2.00000    
 WELL      9   LAYER   2   ROW    10   COL     4   RATE    -2.00000    
 WELL     10   LAYER   2   ROW    10   COL     5   RATE    -2.00000    

  HEAD DEP BOUNDS   PERIOD    7   STEP     5
 BOUNDARY      1   LAYER   2   ROW    13   COL     1   RATE   -0.327543    
 BOUNDARY      2   LAYER   2   ROW    14   COL     9   RATE    0.214289    



 STREAM LISTING     PERIOD      7   STEP        5

 LAYER ROW COL. STREAM  RCH.  FLOW INTO     FLOW TO   FLOW OUT OF   OVRLND.     DIRECT     STREAM       STREAM     STREAM     STREAM   STREAMBED  STREAMBED
                SEG.NO.  NO.  STRM. RCH.    AQUIFER    STRM. RCH.    RUNOFF     PRECIP       ET          HEAD       DEPTH      WIDTH   CONDCTNC.   GRADIENT

   2    1    1     1     1    3.0400E+02  2.6566E+00   3.0134E+02  0.000E+00  0.000E+00  0.000E+00  1.09577E+03  2.719E+00  3.337E+01  1.501E+00  5.898E-01
   2    2    2     1     2    3.0134E+02  8.5642E+00   2.9278E+02  0.000E+00  0.000E+00  0.000E+00  1.09076E+03  2.701E+00  3.313E+01  2.319E+00  1.231E+00
   2    3    3     1     3    2.9278E+02  1.1123E+01   2.8166E+02  0.000E+00  0.000E+00  0.000E+00  1.08509E+03  2.667E+00  3.271E+01  1.963E+00  1.889E+00
   2    3    4     1     4    2.8166E+02  1.0078E+01   2.7158E+02  0.000E+00  0.000E+00  0.000E+00  1.08004E+03  2.630E+00  3.225E+01  1.790E+00  1.877E+00
   2    4    5     2     1    2.6158E+02  0.0000E+00   2.6158E+02  0.000E+00  0.000E+00  0.000E+00  1.07684E+03  4.905E+00  1.200E+01  7.800E-01  2.635E+00
   2    5    6     2     2    2.6158E+02  4.7056E+00   2.5687E+02  0.000E+00  0.000E+00  0.000E+00  1.07135E+03  4.843E+00  1.200E+01  6.000E-01  2.614E+00
   2    6    6     2     3    2.5687E+02  4.6731E+00   2.5220E+02  0.000E+00  0.000E+00  0.000E+00  1.06658E+03  4.789E+00  1.200E+01  6.000E-01  2.596E+00
   2    7    6     2     4    2.5220E+02  4.6407E+00   2.4756E+02  0.000E+00  0.000E+00  0.000E+00  1.06181E+03  4.734E+00  1.200E+01  6.000E-01  2.578E+00
   2    8    6     2     5    2.4756E+02  4.6082E+00   2.4295E+02  0.000E+00  0.000E+00  0.000E+00  1.05704E+03  4.680E+00  1.200E+01  6.000E-01  2.560E+00
   2    3    5     3     1    1.0000E+01  2.8252E+00   7.1748E+00  0.000E+00  0.000E+00  0.000E+00  1.07555E+03  1.909E+00  9.636E+00  7.227E-01  1.955E+00
   2    3    6     3     2    7.1748E+00  2.4905E+00   4.6843E+00  0.000E+00  0.000E+00  0.000E+00  1.07264E+03  1.727E+00  8.909E+00  6.682E-01  1.864E+00
   2    3    7     3     3    4.6843E+00  1.9718E+00   2.7125E+00  0.000E+00  0.000E+00  0.000E+00  1.06987E+03  1.555E+00  8.218E+00  5.547E-01  1.777E+00
   2    4    8     3     4    2.7125E+00  2.2567E+00   4.5579E-01  0.000E+00  0.000E+00  0.000E+00  1.06682E+03  1.364E+00  7.455E+00  6.709E-01  1.682E+00
   2    5    8     3     5    4.5579E-01  4.5579E-01   0.0000E+00  0.000E+00  0.000E+00  0.000E+00  1.06362E+03  0.000E+00  6.655E+00  4.991E-01  1.582E+00
   2    6    8     3     6    0.0000E+00  0.0000E+00   0.0000E+00  0.000E+00  0.000E+00  0.000E+00  1.06055E+03  0.000E+00  6.145E+00  1.844E-01  1.000E+00
   2    5   10     4     1    1.0000E+01  9.0525E-01   9.0947E+00  0.000E+00  0.000E+00  0.000E+00  1.07835E+03  6.210E-01  1.000E+01  2.500E-01  1.207E+00
   2    5    9     4     2    9.0947E+00  1.7835E+00   7.3113E+00  0.000E+00  0.000E+00  0.000E+00  1.07148E+03  5.670E-01  1.000E+01  5.000E-01  1.189E+00
   2    6    8     4     3    7.3113E+00  1.2257E+00   6.0855E+00  0.000E+00  0.000E+00  0.000E+00  1.06368E+03  5.021E-01  1.000E+01  3.500E-01  1.167E+00
   2    6    8     5     1    6.0855E+00  1.4716E+00   4.6139E+00  0.000E+00  0.000E+00  0.000E+00  1.05854E+03  5.396E-01  1.039E+01  4.158E-01  1.180E+00
   2    7    7     5     2    4.6139E+00  1.4897E+00   3.1242E+00  0.000E+00  0.000E+00  0.000E+00  1.05398E+03  4.817E-01  8.557E+00  4.279E-01  1.161E+00
   2    8    7     5     3    3.1242E+00  8.2855E-01   2.2957E+00  0.000E+00  0.000E+00  0.000E+00  1.04968E+03  4.253E-01  6.911E+00  2.419E-01  1.142E+00
   2    8    6     5     4    2.2957E+00  4.9455E-01   1.8011E+00  0.000E+00  0.000E+00  0.000E+00  1.04664E+03  3.856E-01  5.843E+00  1.461E-01  1.129E+00
   2    9    6     6     1    2.4475E+02  4.6195E+00   2.4013E+02  0.000E+00  0.000E+00  0.000E+00  1.04743E+03  4.699E+00  1.200E+01  6.000E-01  2.566E+00
   2   10    7     6     2    2.4013E+02  4.5864E+00   2.3555E+02  0.000E+00  0.000E+00  0.000E+00  1.04283E+03  4.644E+00  1.200E+01  6.000E-01  2.548E+00
   2   11    7     6     3    2.3555E+02  3.8790E+00   2.3167E+02  0.000E+00  0.000E+00  0.000E+00  1.03823E+03  4.593E+00  1.200E+01  6.000E-01  2.155E+00
   2   12    7     6     4    2.3167E+02  2.3472E+00   2.2932E+02  0.000E+00  0.000E+00  0.000E+00  1.03365E+03  4.555E+00  1.200E+01  6.000E-01  1.304E+00
   2   13    7     6     5    2.2932E+02  1.8793E-01   2.2913E+02  0.000E+00  0.000E+00  0.000E+00  1.03045E+03  4.540E+00  1.200E+01  2.400E-01  2.610E-01
   2   14    9     7     1    1.5000E+02  2.8159E+00   1.4718E+02  0.000E+00  0.000E+00  0.000E+00  1.03986E+03  2.284E+00  5.528E+01  5.591E+00  1.679E-01
   2   13    8     7     2    1.4718E+02  3.5217E+00   1.4366E+02  0.000E+00  0.000E+00  0.000E+00  1.03477E+03  2.267E+00  5.520E+01  6.141E+00  1.912E-01
   2   13    7     7     3    1.4366E+02  6.0785E-02   1.4360E+02  0.000E+00  0.000E+00  0.000E+00  1.02968E+03  2.257E+00  5.516E+01  5.578E+00  3.632E-03
   2   13    6     8     1    3.7273E+02  1.6343E-01   3.7370E+02  1.133E+00  0.000E+00  0.000E+00  1.02582E+03  3.940E+00  5.713E+01  5.822E+00  9.357E-03
   2   13    5     8     2    3.7370E+02 -1.4617E+00   3.7630E+02  1.133E+00  0.000E+00  0.000E+00  1.01957E+03  3.947E+00  5.723E+01  5.832E+00 -8.354E-02
   2   13    4     8     3    3.7630E+02 -3.4358E+00   3.8086E+02  1.133E+00  0.000E+00  0.000E+00  1.01334E+03  3.962E+00  5.744E+01  5.854E+00 -1.957E-01
   2   13    3     8     4    3.8086E+02 -4.5108E+00   3.8651E+02  1.133E+00  0.000E+00  0.000E+00  1.00711E+03  3.982E+00  5.774E+01  5.884E+00 -2.556E-01
   2   13    2     8     5    3.8651E+02 -5.3225E+00   3.9296E+02  1.133E+00  0.000E+00  0.000E+00  1.00088E+03  4.005E+00  5.802E+01  5.913E+00 -3.001E-01
   2   13    1     8     6    3.9296E+02 -2.5701E+00   3.9621E+02  6.795E-01  0.000E+00  0.000E+00  9.95896E+02  4.021E+00  5.809E+01  3.552E+00 -2.412E-01
   2    4    5     9     1    0.0000E+00  0.0000E+00   0.0000E+00  0.000E+00  0.000E+00  0.000E+00  1.06000E+03  3.936E-04  2.000E+01  2.000E-03 -9.870E-01
   2    4    5    10     1    0.0000E+00  0.0000E+00   0.0000E+00  0.000E+00  0.000E+00  0.000E+00  1.08000E+03  0.000E+00  2.000E+01  2.000E-03  1.000E+00





     0  LAKE CELLS ARE DRY.

 PERIOD     7     TIME STEP     5     TIME STEP LENGTH  1.7520E+05
 PERIOD TIME  8.7600E+05     TOTAL SIMULATION TIME  1.6644E+07


                 HYDROLOGIC BUDGET SUMMARIES FOR SIMULATED LAKES
     (ALL FLUID FLUXES ARE VOLUMES ADDED TO THE LAKE DURING PRESENT TIME STEP)
     ----------------------------------------------------------------------------------------
 LAKE    STAGE         VOLUME     VOL. CHANGE      PRECIP     EVAPORATION    SPECIFIED RUNOFF     COMPUTED RUNOFF    TOTAL RUNOFF
   1  1.074502E+03  3.497839E+02 -3.459305E+02  0.000000E+00  1.531327E+02   0.000000E+00          0.000000E+00      0.000000E+00

            GROUND WATER            SURFACE WATER        WATER          UZF INFIL.
 LAKE    INFLOW     OUTFLOW      INFLOW     OUTFLOW       USE        FROM LAKE
   1  0.0000E+00  0.0000E+00  0.0000E+00  0.0000E+00  0.0000E+00       1.9280E+02

      CONNECTED LAKE   TIME-STEP         STAGE-CHANGE          PERCENT
 LAKE    INFLUX      SURFACE AREA   TIME STEP  CUMULATIVE    DISCREPANCY
   1   0.0000E+00     5.5107E+03  -2.0605E-03  2.0899E-03       0.000
 --------------------------------------------------------------------------------



            CUMULATIVE HYDROLOGIC BUDGET SUMMARIES FOR SIMULATED LAKES
     (ALL FLUID FLUXES ARE SUMS OF VOLUMES ADDED TO THE LAKE SINCE INITIAL TIME)
     ---------------------------------------------------------------------------
 LAKE       PRECIP       EVAP     SPECIFIED RUNOFF   COMPUTED RUNOFF   TOTAL RUNOFF
   1     0.0000E+00  1.6026E+06       0.0000E+00       0.0000E+00       0.0000E+00

            GROUND WATER            SURFACE WATER       UZF INFIL.
 LAKE    INFLOW     OUTFLOW      INFLOW     OUTFLOW     FROM LAKE
   1  0.0000E+00  0.0000E+00  1.9325E+08  4.8784E+07    1.4286E+08

         WATER    CONNECTED LAKE   CHANGE       PERCENT
 LAKE     USE         INFLUX       IN VOL.    DISCREPANCY
   1   0.0000E+00   0.0000E+00   3.4978E+02      0.000
 --------------------------------------------------------------------------------

 UBDSV3 SAVING "           GW ET" ON UNIT  61 AT TIME STEP     5, STRESS PERIOD   7
 UBDSV3 SAVING "    UZF RECHARGE" ON UNIT  61 AT TIME STEP     5, STRESS PERIOD   7
 UBDSV3 SAVING " SURFACE LEAKAGE" ON UNIT  61 AT TIME STEP     5, STRESS PERIOD   7
 UBDSV3 SAVING "       HORT+DUNN" ON UNIT  61 AT TIME STEP     5, STRESS PERIOD   7
 UBDSV3 SAVING "  STORAGE CHANGE" ON UNIT  61 AT TIME STEP     5, STRESS PERIOD   7


UNSATURATED ZONE PACKAGE VOLUMETRIC BUDGET FOR  TIME STEP     5 STRESS PERIOD    7
  ------------------------------------------------------------------------------



     CUMULATIVE VOLUMES      L**3       RATES FOR THIS TIME STEP      L**3/T
     ------------------                 ------------------------

           IN:                                      IN:
           ---                                      ---
        INFILTRATION =  1342305414.1738          INFILTRATION =          25.1742

          OUT:                                     OUT:
          ----                                     ----
              UZF ET =  1138495782.2021                UZF ET =          59.6009
        UZF RECHARGE =   622118189.9102          UZF RECHARGE =          19.4534

            IN - OUT =  -418308557.9385              IN - OUT =         -53.8802

          STORAGE:                                 STORAGE:
          --------                                 --------
      STORAGE CHANGE =  -418373531.7106        STORAGE CHANGE =         -53.8451

 PERCENT DISCREPANCY IS DIFFERENCE BETWEEN IN-OUT MINUS CHANGE IN STORAGE
 DIVIDED BY THE AVERAGE OF IN AND OUT TIMES 100

 PERCENT DISCREPANCY =           0.00     PERCENT DISCREPANCY =          -0.04






1
  VOLUMETRIC BUDGET FOR ENTIRE MODEL AT END OF TIME STEP    5, STRESS PERIOD   7
  ------------------------------------------------------------------------------

     CUMULATIVE VOLUMES      L**3       RATES FOR THIS TIME STEP      L**3/T
     ------------------                 ------------------------

           IN:                                      IN:
           ---                                      ---
             STORAGE =   116506104.0000               STORAGE =          19.4024
       CONSTANT HEAD =           0.0000         CONSTANT HEAD =           0.0000
               WELLS =           0.0000                 WELLS =           0.0000
     HEAD DEP BOUNDS =     3570147.0000       HEAD DEP BOUNDS =           0.2143
      STREAM LEAKAGE =  1227780480.0000        STREAM LEAKAGE =          91.4303
       LAKE  SEEPAGE =           0.0000         LAKE  SEEPAGE =           0.0000
        UZF RECHARGE =   622118208.0000          UZF RECHARGE =          19.4534
               GW ET =           0.0000                 GW ET =           0.0000
     SURFACE LEAKAGE =           0.0000       SURFACE LEAKAGE =           0.0000

            TOTAL IN =  1969975040.0000              TOTAL IN =         130.5004

          OUT:                                     OUT:
          ----                                     ----
             STORAGE =  1164072832.0000               STORAGE =          76.1349
       CONSTANT HEAD =           0.0000         CONSTANT HEAD =           0.0000
               WELLS =   254040000.0000                 WELLS =          20.0000
     HEAD DEP BOUNDS =     4984672.5000       HEAD DEP BOUNDS =           0.3275
      STREAM LEAKAGE =   296249408.0000        STREAM LEAKAGE =          17.3008
       LAKE  SEEPAGE =           0.0000         LAKE  SEEPAGE =           0.0000
        UZF RECHARGE =           0.0000          UZF RECHARGE =           0.0000
               GW ET =   218770512.0000                 GW ET =          16.7339
     SURFACE LEAKAGE =    64952600.0000       SURFACE LEAKAGE =           6.1638

           TOTAL OUT =  2003070080.0000             TOTAL OUT =         136.6610

            IN - OUT =   -33095040.0000              IN - OUT =          -6.1606

 PERCENT DISCREPANCY =          -1.67     PERCENT DISCREPANCY =          -4.61






         TIME SUMMARY AT END OF TIME STEP    5 IN STRESS PERIOD    7
                    SECONDS     MINUTES      HOURS       DAYS        YEARS
                    -----------------------------------------------------------
   TIME STEP LENGTH 1.75200E+05  2920.0      48.667      2.0278     5.55175E-03
 STRESS PERIOD TIME 8.76000E+05  14600.      243.33      10.139     2.77588E-02
         TOTAL TIME 1.66440E+07 2.77400E+05  4623.3      192.64     0.52742    
1
 
 SOLVING FOR HEAD 
                                                   Max.-Head-Change                         Max.-Flux-Residual
  Residual-Control   Outer-Iter.   Inner-Iter.     Column Row Layer    Maximum-Head-Change  Column Row Layer    Maximum-Flux-Residual          L2-NORM 
          0                 1           2             5    4     2      -0.2904422798E+00       5    4    2        -0.8747767309E+01      0.1517859214E+02
          0                 2           2             6   13     2       0.1356577274E-01       6   13    2         0.4724875896E+00      0.9119831375E+00
          0                 3           1             6   13     2      -0.7381516738E-03       6   13    2        -0.2677448671E-01      0.4316617362E-01

    ------------------------------------------------
       NWT REQUIRED            3 OUTER ITERATIONS 
       AND A TOTAL OF          5 INNER ITERATIONS.
    ------------------------------------------------

 NO OUTPUT CONTROL FOR STRESS PERIOD    7   TIME STEP    6
 
 SOLVING FOR HEAD 
                                                   Max.-Head-Change                         Max.-Flux-Residual
  Residual-Control   Outer-Iter.   Inner-Iter.     Column Row Layer    Maximum-Head-Change  Column Row Layer    Maximum-Flux-Residual          L2-NORM 
          0                 1           2             5    4     2      -0.2689308834E+00       5    4    2        -0.8066096672E+01      0.1432403855E+02
          0                 2           2             6   13     2       0.1304294441E-01       6   13    2         0.4499192539E+00      0.8656048207E+00
          0                 3           1             6   13     2      -0.7068414302E-03       6   13    2        -0.2539983696E-01      0.4147842779E-01

    ------------------------------------------------
       NWT REQUIRED            3 OUTER ITERATIONS 
       AND A TOTAL OF          5 INNER ITERATIONS.
    ------------------------------------------------

 NO OUTPUT CONTROL FOR STRESS PERIOD    7   TIME STEP    7
 ..........LAKE  1 IS DRY..........
 
 SOLVING FOR HEAD 
                                                   Max.-Head-Change                         Max.-Flux-Residual
  Residual-Control   Outer-Iter.   Inner-Iter.     Column Row Layer    Maximum-Head-Change  Column Row Layer    Maximum-Flux-Residual          L2-NORM 
          0                 1           2             5    4     2      -0.2403595740E+00       5    4    2        -0.7187115050E+01      0.1265521624E+02
          0                 2           2             6   13     2       0.1028662981E-01       6   13    2         0.3544275823E+00      0.7418332129E+00
          0                 3           1             6   13     2      -0.5543489736E-03       6   13    2        -0.1990452024E-01      0.3516504188E-01

    ------------------------------------------------
       NWT REQUIRED            3 OUTER ITERATIONS 
       AND A TOTAL OF          5 INNER ITERATIONS.
    ------------------------------------------------

 NO OUTPUT CONTROL FOR STRESS PERIOD    7   TIME STEP    8
 ..........LAKE  1 IS DRY..........
 
 SOLVING FOR HEAD 
                                                   Max.-Head-Change                         Max.-Flux-Residual
  Residual-Control   Outer-Iter.   Inner-Iter.     Column Row Layer    Maximum-Head-Change  Column Row Layer    Maximum-Flux-Residual          L2-NORM 
          0                 1           2             5    4     2      -0.2131385543E+00       5    4    2        -0.6352777375E+01      0.1134153012E+02
          0                 2           2             6   13     2       0.8105742644E-02       6   13    2         0.2789842160E+00      0.6561916468E+00
          0                 3           1             6   13     2      -0.4343326870E-03       6   13    2        -0.1558461357E-01      0.3022857399E-01

    ------------------------------------------------
       NWT REQUIRED            3 OUTER ITERATIONS 
       AND A TOTAL OF          5 INNER ITERATIONS.
    ------------------------------------------------

 NO OUTPUT CONTROL FOR STRESS PERIOD    7   TIME STEP    9
 ..........LAKE  1 IS DRY..........
 
 SOLVING FOR HEAD 
                                                   Max.-Head-Change                         Max.-Flux-Residual
  Residual-Control   Outer-Iter.   Inner-Iter.     Column Row Layer    Maximum-Head-Change  Column Row Layer    Maximum-Flux-Residual          L2-NORM 
          0                 1           2             5    4     2      -0.2034380634E+00       5    4    2        -0.6041863665E+01      0.1114660393E+02
          0                 2           2             2    2     2       0.8750710977E-02       6   13    2         0.2842235357E+00      0.6707619170E+00
          0                 3           1             2    2     2      -0.5028650118E-03       6   13    2        -0.1581453030E-01      0.3163099849E-01

    ------------------------------------------------
       NWT REQUIRED            3 OUTER ITERATIONS 
       AND A TOTAL OF          5 INNER ITERATIONS.
    ------------------------------------------------

 OUTPUT CONTROL FOR STRESS PERIOD    7   TIME STEP   10
    PRINT BUDGET
    SAVE BUDGET

            WELLS   PERIOD    7   STEP  10
 WELL      1   LAYER   2   ROW     6   COL     4   RATE    -2.00000    
 WELL      2   LAYER   2   ROW     6   COL     5   RATE    -2.00000    
 WELL      3   LAYER   2   ROW     7   COL     4   RATE    -2.00000    
 WELL      4   LAYER   2   ROW     7   COL     5   RATE    -2.00000    
 WELL      5   LAYER   2   ROW     8   COL     4   RATE    -2.00000    
 WELL      6   LAYER   2   ROW     8   COL     5   RATE    -2.00000    
 WELL      7   LAYER   2   ROW     9   COL     4   RATE    -2.00000    
 WELL      8   LAYER   2   ROW     9   COL     5   RATE    -2.00000    
 WELL      9   LAYER   2   ROW    10   COL     4   RATE    -2.00000    
 WELL     10   LAYER   2   ROW    10   COL     5   RATE    -2.00000    

  HEAD DEP BOUNDS   PERIOD    7   STEP    10
 BOUNDARY      1   LAYER   2   ROW    13   COL     1   RATE   -0.318493    
 BOUNDARY      2   LAYER   2   ROW    14   COL     9   RATE    0.214298    



 STREAM LISTING     PERIOD      7   STEP       10

 LAYER ROW COL. STREAM  RCH.  FLOW INTO     FLOW TO   FLOW OUT OF   OVRLND.     DIRECT     STREAM       STREAM     STREAM     STREAM   STREAMBED  STREAMBED
                SEG.NO.  NO.  STRM. RCH.    AQUIFER    STRM. RCH.    RUNOFF     PRECIP       ET          HEAD       DEPTH      WIDTH   CONDCTNC.   GRADIENT

   2    1    1     1     1    1.3412E+02  1.3924E+00   1.3273E+02  0.000E+00  0.000E+00  0.000E+00  1.09505E+03  2.004E+00  2.452E+01  1.103E+00  4.206E-01
   2    2    2     1     2    1.3273E+02  5.7123E+00   1.2702E+02  0.000E+00  0.000E+00  0.000E+00  1.09004E+03  1.984E+00  2.427E+01  1.699E+00  1.121E+00
   2    3    3     1     3    1.2702E+02  7.0694E+00   1.1995E+02  0.000E+00  0.000E+00  0.000E+00  1.08437E+03  1.947E+00  2.382E+01  1.429E+00  1.649E+00
   2    3    4     1     4    1.1995E+02  6.3513E+00   1.1360E+02  0.000E+00  0.000E+00  0.000E+00  1.07931E+03  1.907E+00  2.332E+01  1.294E+00  1.636E+00
   2    4    5     2     1    1.0360E+02  0.0000E+00   1.0360E+02  0.000E+00  0.000E+00  0.000E+00  1.07473E+03  2.796E+00  1.200E+01  7.800E-01  1.932E+00
   2    5    6     2     2    1.0360E+02  3.4380E+00   1.0016E+02  0.000E+00  0.000E+00  0.000E+00  1.06924E+03  2.730E+00  1.200E+01  6.000E-01  1.910E+00
   2    6    6     2     3    1.0016E+02  3.4032E+00   9.6757E+01  0.000E+00  0.000E+00  0.000E+00  1.06446E+03  2.672E+00  1.200E+01  6.000E-01  1.891E+00
   2    7    6     2     4    9.6757E+01  3.3683E+00   9.3388E+01  0.000E+00  0.000E+00  0.000E+00  1.05969E+03  2.614E+00  1.200E+01  6.000E-01  1.871E+00
   2    8    6     2     5    9.3388E+01  3.3332E+00   9.0055E+01  0.000E+00  0.000E+00  0.000E+00  1.05491E+03  2.555E+00  1.200E+01  6.000E-01  1.852E+00
   2    3    5     3     1    1.0000E+01  2.8252E+00   7.1748E+00  0.000E+00  0.000E+00  0.000E+00  1.07555E+03  1.909E+00  9.636E+00  7.227E-01  1.955E+00
   2    3    6     3     2    7.1748E+00  2.4905E+00   4.6843E+00  0.000E+00  0.000E+00  0.000E+00  1.07264E+03  1.727E+00  8.909E+00  6.682E-01  1.864E+00
   2    3    7     3     3    4.6843E+00  1.9718E+00   2.7125E+00  0.000E+00  0.000E+00  0.000E+00  1.06987E+03  1.555E+00  8.218E+00  5.547E-01  1.777E+00
   2    4    8     3     4    2.7125E+00  2.2567E+00   4.5579E-01  0.000E+00  0.000E+00  0.000E+00  1.06682E+03  1.364E+00  7.455E+00  6.709E-01  1.682E+00
   2    5    8     3     5    4.5579E-01  4.5579E-01   0.0000E+00  0.000E+00  0.000E+00  0.000E+00  1.06362E+03  0.000E+00  6.655E+00  4.991E-01  1.582E+00
   2    6    8     3     6    0.0000E+00  0.0000E+00   0.0000E+00  0.000E+00  0.000E+00  0.000E+00  1.06055E+03  0.000E+00  6.145E+00  1.844E-01  1.000E+00
   2    5   10     4     1    1.0000E+01  9.0525E-01   9.0947E+00  0.000E+00  0.000E+00  0.000E+00  1.07835E+03  6.210E-01  1.000E+01  2.500E-01  1.207E+00
   2    5    9     4     2    9.0947E+00  1.7835E+00   7.3113E+00  0.000E+00  0.000E+00  0.000E+00  1.07148E+03  5.670E-01  1.000E+01  5.000E-01  1.189E+00
   2    6    8     4     3    7.3113E+00  1.2257E+00   6.0855E+00  0.000E+00  0.000E+00  0.000E+00  1.06368E+03  5.021E-01  1.000E+01  3.500E-01  1.167E+00
   2    6    8     5     1    6.0855E+00  1.4716E+00   4.6139E+00  0.000E+00  0.000E+00  0.000E+00  1.05854E+03  5.396E-01  1.039E+01  4.158E-01  1.180E+00
   2    7    7     5     2    4.6139E+00  1.4897E+00   3.1242E+00  0.000E+00  0.000E+00  0.000E+00  1.05398E+03  4.817E-01  8.557E+00  4.279E-01  1.161E+00
   2    8    7     5     3    3.1242E+00  8.2855E-01   2.2957E+00  0.000E+00  0.000E+00  0.000E+00  1.04968E+03  4.253E-01  6.911E+00  2.419E-01  1.142E+00
   2    8    6     5     4    2.2957E+00  4.9455E-01   1.8011E+00  0.000E+00  0.000E+00  0.000E+00  1.04664E+03  3.856E-01  5.843E+00  1.461E-01  1.129E+00
   2    9    6     6     1    9.1856E+01  3.3340E+00   8.8522E+01  0.000E+00  0.000E+00  0.000E+00  1.04528E+03  2.557E+00  1.200E+01  6.000E-01  1.852E+00
   2   10    7     6     2    8.8522E+01  3.2981E+00   8.5224E+01  0.000E+00  0.000E+00  0.000E+00  1.04068E+03  2.497E+00  1.200E+01  6.000E-01  1.832E+00
   2   11    7     6     3    8.5224E+01  2.6025E+00   8.2622E+01  0.000E+00  0.000E+00  0.000E+00  1.03608E+03  2.443E+00  1.200E+01  6.000E-01  1.446E+00
   2   12    7     6     4    8.2622E+01  1.1218E+00   8.1500E+01  0.000E+00  0.000E+00  0.000E+00  1.03150E+03  2.408E+00  1.200E+01  6.000E-01  6.232E-01
   2   13    7     6     5    8.1500E+01 -2.9756E-01   8.1797E+01  0.000E+00  0.000E+00  0.000E+00  1.02831E+03  2.400E+00  1.200E+01  2.400E-01 -4.133E-01
   2   14    9     7     1    1.5000E+02  2.8172E+00   1.4718E+02  0.000E+00  0.000E+00  0.000E+00  1.03986E+03  2.284E+00  5.528E+01  5.591E+00  1.680E-01
   2   13    8     7     2    1.4718E+02  3.5182E+00   1.4366E+02  0.000E+00  0.000E+00  0.000E+00  1.03477E+03  2.267E+00  5.520E+01  6.141E+00  1.910E-01
   2   13    7     7     3    1.4366E+02  6.9976E-01   1.4296E+02  0.000E+00  0.000E+00  0.000E+00  1.02967E+03  2.256E+00  5.515E+01  5.577E+00  4.182E-02
   2   13    6     8     1    2.2476E+02 -5.9461E-01   2.2564E+02  2.833E-01  0.000E+00  0.000E+00  1.02513E+03  3.256E+00  4.721E+01  4.811E+00 -4.120E-02
   2   13    5     8     2    2.2564E+02 -3.1835E+00   2.2911E+02  2.833E-01  0.000E+00  0.000E+00  1.01889E+03  3.268E+00  4.738E+01  4.828E+00 -2.198E-01
   2   13    4     8     3    2.2911E+02 -5.3162E+00   2.3471E+02  2.833E-01  0.000E+00  0.000E+00  1.01267E+03  3.292E+00  4.774E+01  4.865E+00 -3.643E-01
   2   13    3     8     4    2.3471E+02 -6.1391E+00   2.4113E+02  2.833E-01  0.000E+00  0.000E+00  1.00645E+03  3.325E+00  4.821E+01  4.913E+00 -4.165E-01
   2   13    2     8     5    2.4113E+02 -5.2824E+00   2.4669E+02  2.833E-01  0.000E+00  0.000E+00  1.00023E+03  3.357E+00  4.867E+01  4.960E+00 -3.550E-01
   2   13    1     8     6    2.4669E+02 -3.3745E+00   2.5024E+02  1.700E-01  0.000E+00  0.000E+00  9.95255E+02  3.380E+00  4.902E+01  2.997E+00 -3.753E-01
   2    4    5     9     1    0.0000E+00  0.0000E+00   0.0000E+00  0.000E+00  0.000E+00  0.000E+00  1.06000E+03  2.857E-04  2.000E+01  2.000E-03 -5.789E-01
   2    4    5    10     1    0.0000E+00  0.0000E+00   0.0000E+00  0.000E+00  0.000E+00  0.000E+00  1.08000E+03  0.000E+00  2.000E+01  2.000E-03  1.000E+00



 ..........LAKE  1 IS DRY..........

     SECTIONS OF THE LAKE BOTTOM HAVE BECOME DRY.  THE DRYSECTIONS
     LIE ABOVE THE FOLLOWING  1 AQUIFER CELLS (LAYER,ROW,COLUMN):
     (  2,  4,  5)  (

 PERIOD     7     TIME STEP    10     TIME STEP LENGTH  1.7520E+05
 PERIOD TIME  1.7520E+06     TOTAL SIMULATION TIME  1.7520E+07


                 HYDROLOGIC BUDGET SUMMARIES FOR SIMULATED LAKES
     (ALL FLUID FLUXES ARE VOLUMES ADDED TO THE LAKE DURING PRESENT TIME STEP)
     ----------------------------------------------------------------------------------------
 LAKE    STAGE         VOLUME     VOL. CHANGE      PRECIP     EVAPORATION    SPECIFIED RUNOFF     COMPUTED RUNOFF    TOTAL RUNOFF
   1  1.074500E+03  0.000000E+00  0.000000E+00  0.000000E+00  0.000000E+00   0.000000E+00          0.000000E+00      0.000000E+00

            GROUND WATER            SURFACE WATER        WATER          UZF INFIL.
 LAKE    INFLOW     OUTFLOW      INFLOW     OUTFLOW       USE        FROM LAKE
   1  0.0000E+00  0.0000E+00  0.0000E+00  0.0000E+00  0.0000E+00       0.0000E+00

      CONNECTED LAKE   TIME-STEP         STAGE-CHANGE          PERCENT
 LAKE    INFLUX      SURFACE AREA   TIME STEP  CUMULATIVE    DISCREPANCY
   1   0.0000E+00     0.0000E+00  -1.3306E-03  7.4458E-04       0.000
 --------------------------------------------------------------------------------



            CUMULATIVE HYDROLOGIC BUDGET SUMMARIES FOR SIMULATED LAKES
     (ALL FLUID FLUXES ARE SUMS OF VOLUMES ADDED TO THE LAKE SINCE INITIAL TIME)
     ---------------------------------------------------------------------------
 LAKE       PRECIP       EVAP     SPECIFIED RUNOFF   COMPUTED RUNOFF   TOTAL RUNOFF
   1     0.0000E+00  1.6028E+06       0.0000E+00       0.0000E+00       0.0000E+00

            GROUND WATER            SURFACE WATER       UZF INFIL.
 LAKE    INFLOW     OUTFLOW      INFLOW     OUTFLOW     FROM LAKE
   1  0.0000E+00  0.0000E+00  1.9325E+08  4.8784E+07    1.4286E+08

         WATER    CONNECTED LAKE   CHANGE       PERCENT
 LAKE     USE         INFLUX       IN VOL.    DISCREPANCY
   1   0.0000E+00   0.0000E+00   0.0000E+00     -0.000
 --------------------------------------------------------------------------------

 UBDSV3 SAVING "           GW ET" ON UNIT  61 AT TIME STEP    10, STRESS PERIOD   7
 UBDSV3 SAVING "    UZF RECHARGE" ON UNIT  61 AT TIME STEP    10, STRESS PERIOD   7
 UBDSV3 SAVING " SURFACE LEAKAGE" ON UNIT  61 AT TIME STEP    10, STRESS PERIOD   7
 UBDSV3 SAVING "       HORT+DUNN" ON UNIT  61 AT TIME STEP    10, STRESS PERIOD   7
 UBDSV3 SAVING "  STORAGE CHANGE" ON UNIT  61 AT TIME STEP    10, STRESS PERIOD   7


UNSATURATED ZONE PACKAGE VOLUMETRIC BUDGET FOR  TIME STEP    10 STRESS PERIOD    7
  ------------------------------------------------------------------------------



     CUMULATIVE VOLUMES      L**3       RATES FOR THIS TIME STEP      L**3/T
     ------------------                 ------------------------

           IN:                                      IN:
           ---                                      ---
        INFILTRATION =  1364416769.2404          INFILTRATION =          25.2734

          OUT:                                     OUT:
          ----                                     ----
              UZF ET =  1192690872.4632                UZF ET =          63.2002
        UZF RECHARGE =   635787634.5639          UZF RECHARGE =          13.8280

            IN - OUT =  -464061737.7867              IN - OUT =         -51.7548

          STORAGE:                                 STORAGE:
          --------                                 --------
      STORAGE CHANGE =  -464113345.9043        STORAGE CHANGE =         -51.7450

 PERCENT DISCREPANCY IS DIFFERENCE BETWEEN IN-OUT MINUS CHANGE IN STORAGE
 DIVIDED BY THE AVERAGE OF IN AND OUT TIMES 100

 PERCENT DISCREPANCY =           0.00     PERCENT DISCREPANCY =          -0.01






1
  VOLUMETRIC BUDGET FOR ENTIRE MODEL AT END OF TIME STEP   10, STRESS PERIOD   7
  ------------------------------------------------------------------------------

     CUMULATIVE VOLUMES      L**3       RATES FOR THIS TIME STEP      L**3/T
     ------------------                 ------------------------

           IN:                                      IN:
           ---                                      ---
             STORAGE =   136704736.0000               STORAGE =          21.5756
       CONSTANT HEAD =           0.0000         CONSTANT HEAD =           0.0000
               WELLS =           0.0000                 WELLS =           0.0000
     HEAD DEP BOUNDS =     3757874.7500       HEAD DEP BOUNDS =           0.2143
      STREAM LEAKAGE =  1292938880.0000        STREAM LEAKAGE =          69.6587
       LAKE  SEEPAGE =           0.0000         LAKE  SEEPAGE =           0.0000
        UZF RECHARGE =   635787648.0000          UZF RECHARGE =          13.8280
               GW ET =           0.0000                 GW ET =           0.0000
     SURFACE LEAKAGE =           0.0000       SURFACE LEAKAGE =           0.0000

            TOTAL IN =  2069189120.0000              TOTAL IN =         105.2766

          OUT:                                     OUT:
          ----                                     ----
             STORAGE =  1211963776.0000               STORAGE =          47.2337
       CONSTANT HEAD =           0.0000         CONSTANT HEAD =           0.0000
               WELLS =   271560000.0000                 WELLS =          20.0000
     HEAD DEP BOUNDS =     5266822.5000       HEAD DEP BOUNDS =           0.3185
      STREAM LEAKAGE =   317173120.0000        STREAM LEAKAGE =          24.1879
       LAKE  SEEPAGE =           0.0000         LAKE  SEEPAGE =           0.0000
        UZF RECHARGE =           0.0000          UZF RECHARGE =           0.0000
               GW ET =   233376384.0000                 GW ET =          16.6007
     SURFACE LEAKAGE =    67287040.0000       SURFACE LEAKAGE =           1.5084

           TOTAL OUT =  2106627200.0000             TOTAL OUT =         109.8493

            IN - OUT =   -37438080.0000              IN - OUT =          -4.5726

 PERCENT DISCREPANCY =          -1.79     PERCENT DISCREPANCY =          -4.25






         TIME SUMMARY AT END OF TIME STEP   10 IN STRESS PERIOD    7
                    SECONDS     MINUTES      HOURS       DAYS        YEARS
                    -----------------------------------------------------------
   TIME STEP LENGTH 1.75200E+05  2920.0      48.667      2.0278     5.55175E-03
 STRESS PERIOD TIME 1.75200E+06  29200.      486.67      20.278     5.55175E-02
         TOTAL TIME 1.75200E+07 2.92000E+05  4866.7      202.78     0.55518    
1
 
 SOLVING FOR HEAD 
                                                   Max.-Head-Change                         Max.-Flux-Residual
  Residual-Control   Outer-Iter.   Inner-Iter.     Column Row Layer    Maximum-Head-Change  Column Row Layer    Maximum-Flux-Residual          L2-NORM 
          0                 1           2             5    4     2      -0.1848837717E+00       5    4    2        -0.5470989866E+01      0.1050212801E+02
          0                 2           2             2    2     2       0.8947365893E-02       2    2    2         0.2699215250E+00      0.6492203191E+00
          0                 3           1             2    2     2      -0.5132927535E-03       2    2    2        -0.1584744967E-01      0.3085959390E-01

    ------------------------------------------------
       NWT REQUIRED            3 OUTER ITERATIONS 
       AND A TOTAL OF          5 INNER ITERATIONS.
    ------------------------------------------------

 NO OUTPUT CONTROL FOR STRESS PERIOD    7   TIME STEP   11
 ..........LAKE  1 IS DRY..........
 
 SOLVING FOR HEAD 
                                                   Max.-Head-Change                         Max.-Flux-Residual
  Residual-Control   Outer-Iter.   Inner-Iter.     Column Row Layer    Maximum-Head-Change  Column Row Layer    Maximum-Flux-Residual          L2-NORM 
          0                 1           2             5    4     2      -0.1631861790E+00       5    4    2        -0.4811590231E+01      0.9497894727E+01
          0                 2           2             2    2     2       0.7825071837E-02       2    2    2         0.2364794891E+00      0.5808107170E+00
          0                 3           1             2    2     2      -0.4490205124E-03       2    2    2        -0.1387083546E-01      0.2716276654E-01

    ------------------------------------------------
       NWT REQUIRED            3 OUTER ITERATIONS 
       AND A TOTAL OF          5 INNER ITERATIONS.
    ------------------------------------------------

 NO OUTPUT CONTROL FOR STRESS PERIOD    7   TIME STEP   12
 ..........LAKE  1 IS DRY..........
 
 SOLVING FOR HEAD 
                                                   Max.-Head-Change                         Max.-Flux-Residual
  Residual-Control   Outer-Iter.   Inner-Iter.     Column Row Layer    Maximum-Head-Change  Column Row Layer    Maximum-Flux-Residual          L2-NORM 
          0                 1           2             5    4     2      -0.1394509793E+00       5    4    2        -0.4097333590E+01      0.8319954957E+01
          0                 2           2             2    2     2       0.5500572355E-02       2    2    2         0.1677980751E+00      0.4968818835E+00
          0                 3           1             2    2     2      -0.3167170786E-03       2    2    2        -0.9824484967E-02      0.2201848729E-01

    ------------------------------------------------
       NWT REQUIRED            3 OUTER ITERATIONS 
       AND A TOTAL OF          5 INNER ITERATIONS.
    ------------------------------------------------

 NO OUTPUT CONTROL FOR STRESS PERIOD    7   TIME STEP   13
 ..........LAKE  1 IS DRY..........
 
 SOLVING FOR HEAD 
                                                   Max.-Head-Change                         Max.-Flux-Residual
  Residual-Control   Outer-Iter.   Inner-Iter.     Column Row Layer    Maximum-Head-Change  Column Row Layer    Maximum-Flux-Residual          L2-NORM 
          0                 1           2             5    4     2      -0.1124964657E+00       5    4    2        -0.3295089542E+01      0.7470714692E+01
          0                 2           2             3    4     2      -0.5047061394E-02       3    2    2        -0.1370001120E+00      0.4490481501E+00
          0                 3           1             3    3     2       0.2741216911E-03       3    3    2         0.8110073029E-02      0.1896034879E-01

    ------------------------------------------------
       NWT REQUIRED            3 OUTER ITERATIONS 
       AND A TOTAL OF          5 INNER ITERATIONS.
    ------------------------------------------------

 NO OUTPUT CONTROL FOR STRESS PERIOD    7   TIME STEP   14
 ..........LAKE  1 IS DRY..........
 
 SOLVING FOR HEAD 
                                                   Max.-Head-Change                         Max.-Flux-Residual
  Residual-Control   Outer-Iter.   Inner-Iter.     Column Row Layer    Maximum-Head-Change  Column Row Layer    Maximum-Flux-Residual          L2-NORM 
          0                 1           2             3    2     2       0.1057990128E+00       5    4    2        -0.2951749325E+01      0.7149407102E+01
          0                 2           2             3    2     2      -0.4919827086E-02       3    2    2        -0.1356864205E+00      0.4384275876E+00
          0                 3           1             3    3     2       0.2780309077E-03       3    3    2         0.8236560841E-02      0.1848843456E-01

    ------------------------------------------------
       NWT REQUIRED            3 OUTER ITERATIONS 
       AND A TOTAL OF          5 INNER ITERATIONS.
    ------------------------------------------------

 OUTPUT CONTROL FOR STRESS PERIOD    7   TIME STEP   15
    PRINT BUDGET
    PRINT HEAD FOR ALL LAYERS
    SAVE HEAD FOR ALL LAYERS
    SAVE BUDGET

            WELLS   PERIOD    7   STEP  15
 WELL      1   LAYER   2   ROW     6   COL     4   RATE    -2.00000    
 WELL      2   LAYER   2   ROW     6   COL     5   RATE    -2.00000    
 WELL      3   LAYER   2   ROW     7   COL     4   RATE    -2.00000    
 WELL      4   LAYER   2   ROW     7   COL     5   RATE    -2.00000    
 WELL      5   LAYER   2   ROW     8   COL     4   RATE    -2.00000    
 WELL      6   LAYER   2   ROW     8   COL     5   RATE    -2.00000    
 WELL      7   LAYER   2   ROW     9   COL     4   RATE    -2.00000    
 WELL      8   LAYER   2   ROW     9   COL     5   RATE    -2.00000    
 WELL      9   LAYER   2   ROW    10   COL     4   RATE    -2.00000    
 WELL     10   LAYER   2   ROW    10   COL     5   RATE    -2.00000    

  HEAD DEP BOUNDS   PERIOD    7   STEP    15
 BOUNDARY      1   LAYER   2   ROW    13   COL     1   RATE   -0.312015    
 BOUNDARY      2   LAYER   2   ROW    14   COL     9   RATE    0.214264    



 STREAM LISTING     PERIOD      7   STEP       15

 LAYER ROW COL. STREAM  RCH.  FLOW INTO     FLOW TO   FLOW OUT OF   OVRLND.     DIRECT     STREAM       STREAM     STREAM     STREAM   STREAMBED  STREAMBED
                SEG.NO.  NO.  STRM. RCH.    AQUIFER    STRM. RCH.    RUNOFF     PRECIP       ET          HEAD       DEPTH      WIDTH   CONDCTNC.   GRADIENT

   2    1    1     1     1    1.7500E+02  2.0031E+00   1.7300E+02  0.000E+00  0.000E+00  0.000E+00  1.09526E+03  2.213E+00  2.709E+01  1.219E+00  5.476E-01
   2    2    2     1     2    1.7300E+02  7.1244E+00   1.6587E+02  0.000E+00  0.000E+00  0.000E+00  1.09025E+03  2.191E+00  2.682E+01  1.878E+00  1.265E+00
   2    3    3     1     3    1.6587E+02  8.1518E+00   1.5772E+02  0.000E+00  0.000E+00  0.000E+00  1.08457E+03  2.153E+00  2.636E+01  1.582E+00  1.718E+00
   2    3    4     1     4    1.5772E+02  7.3465E+00   1.5037E+02  0.000E+00  0.000E+00  0.000E+00  1.07952E+03  2.114E+00  2.588E+01  1.436E+00  1.705E+00
   2    4    5     2     1    1.4037E+02  0.0000E+00   1.4037E+02  0.000E+00  0.000E+00  0.000E+00  1.07530E+03  3.364E+00  1.200E+01  7.800E-01  2.121E+00
   2    5    6     2     2    1.4037E+02  3.7798E+00   1.3659E+02  0.000E+00  0.000E+00  0.000E+00  1.06981E+03  3.300E+00  1.200E+01  6.000E-01  2.100E+00
   2    6    6     2     3    1.3659E+02  3.7461E+00   1.3285E+02  0.000E+00  0.000E+00  0.000E+00  1.06504E+03  3.244E+00  1.200E+01  6.000E-01  2.081E+00
   2    7    6     2     4    1.3285E+02  3.7124E+00   1.2914E+02  0.000E+00  0.000E+00  0.000E+00  1.06026E+03  3.187E+00  1.200E+01  6.000E-01  2.062E+00
   2    8    6     2     5    1.2914E+02  3.6785E+00   1.2546E+02  0.000E+00  0.000E+00  0.000E+00  1.05549E+03  3.131E+00  1.200E+01  6.000E-01  2.044E+00
   2    3    5     3     1    1.0000E+01  2.8252E+00   7.1748E+00  0.000E+00  0.000E+00  0.000E+00  1.07555E+03  1.909E+00  9.636E+00  7.227E-01  1.955E+00
   2    3    6     3     2    7.1748E+00  2.4905E+00   4.6843E+00  0.000E+00  0.000E+00  0.000E+00  1.07264E+03  1.727E+00  8.909E+00  6.682E-01  1.864E+00
   2    3    7     3     3    4.6843E+00  1.9718E+00   2.7125E+00  0.000E+00  0.000E+00  0.000E+00  1.06987E+03  1.555E+00  8.218E+00  5.547E-01  1.777E+00
   2    4    8     3     4    2.7125E+00  2.2567E+00   4.5579E-01  0.000E+00  0.000E+00  0.000E+00  1.06682E+03  1.364E+00  7.455E+00  6.709E-01  1.682E+00
   2    5    8     3     5    4.5579E-01  4.5579E-01   0.0000E+00  0.000E+00  0.000E+00  0.000E+00  1.06362E+03  0.000E+00  6.655E+00  4.991E-01  1.582E+00
   2    6    8     3     6    0.0000E+00  0.0000E+00   0.0000E+00  0.000E+00  0.000E+00  0.000E+00  1.06055E+03  0.000E+00  6.145E+00  1.844E-01  1.000E+00
   2    5   10     4     1    1.0000E+01  9.0525E-01   9.0947E+00  0.000E+00  0.000E+00  0.000E+00  1.07835E+03  6.210E-01  1.000E+01  2.500E-01  1.207E+00
   2    5    9     4     2    9.0947E+00  1.7835E+00   7.3113E+00  0.000E+00  0.000E+00  0.000E+00  1.07148E+03  5.670E-01  1.000E+01  5.000E-01  1.189E+00
   2    6    8     4     3    7.3113E+00  1.2257E+00   6.0855E+00  0.000E+00  0.000E+00  0.000E+00  1.06368E+03  5.021E-01  1.000E+01  3.500E-01  1.167E+00
   2    6    8     5     1    6.0855E+00  1.4716E+00   4.6139E+00  0.000E+00  0.000E+00  0.000E+00  1.05854E+03  5.396E-01  1.039E+01  4.158E-01  1.180E+00
   2    7    7     5     2    4.6139E+00  1.4897E+00   3.1242E+00  0.000E+00  0.000E+00  0.000E+00  1.05398E+03  4.817E-01  8.557E+00  4.279E-01  1.161E+00
   2    8    7     5     3    3.1242E+00  8.2855E-01   2.2957E+00  0.000E+00  0.000E+00  0.000E+00  1.04968E+03  4.253E-01  6.911E+00  2.419E-01  1.142E+00
   2    8    6     5     4    2.2957E+00  4.9455E-01   1.8011E+00  0.000E+00  0.000E+00  0.000E+00  1.04664E+03  3.856E-01  5.843E+00  1.461E-01  1.129E+00
   2    9    6     6     1    1.2726E+02  3.6820E+00   1.2358E+02  0.000E+00  0.000E+00  0.000E+00  1.04586E+03  3.137E+00  1.200E+01  6.000E-01  2.046E+00
   2   10    7     6     2    1.2358E+02  3.6474E+00   1.1993E+02  0.000E+00  0.000E+00  0.000E+00  1.04126E+03  3.079E+00  1.200E+01  6.000E-01  2.026E+00
   2   11    7     6     3    1.1993E+02  2.9623E+00   1.1697E+02  0.000E+00  0.000E+00  0.000E+00  1.03666E+03  3.026E+00  1.200E+01  6.000E-01  1.646E+00
   2   12    7     6     4    1.1697E+02  1.5237E+00   1.1544E+02  0.000E+00  0.000E+00  0.000E+00  1.03208E+03  2.990E+00  1.200E+01  6.000E-01  8.465E-01
   2   13    7     6     5    1.1544E+02 -1.4247E-01   1.1559E+02  0.000E+00  0.000E+00  0.000E+00  1.02889E+03  2.979E+00  1.200E+01  2.400E-01 -1.979E-01
   2   14    9     7     1    1.5000E+02  2.8123E+00   1.4719E+02  0.000E+00  0.000E+00  0.000E+00  1.03986E+03  2.284E+00  5.528E+01  5.591E+00  1.677E-01
   2   13    8     7     2    1.4719E+02  3.5379E+00   1.4365E+02  0.000E+00  0.000E+00  0.000E+00  1.03477E+03  2.267E+00  5.520E+01  6.141E+00  1.920E-01
   2   13    7     7     3    1.4365E+02  1.0698E+00   1.4258E+02  0.000E+00  0.000E+00  0.000E+00  1.02967E+03  2.254E+00  5.515E+01  5.577E+00  6.395E-02
   2   13    6     8     1    2.5817E+02  1.1878E+00   2.5717E+02  1.918E-01  0.000E+00  0.000E+00  1.02530E+03  3.425E+00  4.967E+01  5.061E+00  7.823E-02
   2   13    5     8     2    2.5717E+02 -2.0044E+00   2.5937E+02  1.918E-01  0.000E+00  0.000E+00  1.01905E+03  3.428E+00  4.971E+01  5.066E+00 -1.319E-01
   2   13    4     8     3    2.5937E+02 -4.6037E+00   2.6416E+02  1.918E-01  0.000E+00  0.000E+00  1.01282E+03  3.446E+00  4.997E+01  5.092E+00 -3.014E-01
   2   13    3     8     4    2.6416E+02 -5.4263E+00   2.6978E+02  1.918E-01  0.000E+00  0.000E+00  1.00660E+03  3.472E+00  5.035E+01  5.130E+00 -3.526E-01
   2   13    2     8     5    2.6978E+02 -3.7046E+00   2.7368E+02  1.918E-01  0.000E+00  0.000E+00  1.00037E+03  3.496E+00  5.069E+01  5.165E+00 -2.391E-01
   2   13    1     8     6    2.7368E+02 -2.5660E+00   2.7636E+02  1.151E-01  0.000E+00  0.000E+00  9.95387E+02  3.512E+00  5.092E+01  3.113E+00 -2.747E-01
   2    4    5     9     1    0.0000E+00  0.0000E+00   0.0000E+00  0.000E+00  0.000E+00  0.000E+00  1.06000E+03  2.114E-04  2.000E+01  2.000E-03 -3.503E-01
   2    4    5    10     1    0.0000E+00  0.0000E+00   0.0000E+00  0.000E+00  0.000E+00  0.000E+00  1.08000E+03  0.000E+00  2.000E+01  2.000E-03  1.000E+00



 ..........LAKE  1 IS DRY..........

     SECTIONS OF THE LAKE BOTTOM HAVE BECOME DRY.  THE DRYSECTIONS
     LIE ABOVE THE FOLLOWING  1 AQUIFER CELLS (LAYER,ROW,COLUMN):
     (  2,  4,  5)  (

 PERIOD     7     TIME STEP    15     TIME STEP LENGTH  1.7520E+05
 PERIOD TIME  2.6280E+06     TOTAL SIMULATION TIME  1.8396E+07


                 HYDROLOGIC BUDGET SUMMARIES FOR SIMULATED LAKES
     (ALL FLUID FLUXES ARE VOLUMES ADDED TO THE LAKE DURING PRESENT TIME STEP)
     ----------------------------------------------------------------------------------------
 LAKE    STAGE         VOLUME     VOL. CHANGE      PRECIP     EVAPORATION    SPECIFIED RUNOFF     COMPUTED RUNOFF    TOTAL RUNOFF
   1  1.074500E+03  0.000000E+00  0.000000E+00  0.000000E+00  0.000000E+00   0.000000E+00          0.000000E+00      0.000000E+00

            GROUND WATER            SURFACE WATER        WATER          UZF INFIL.
 LAKE    INFLOW     OUTFLOW      INFLOW     OUTFLOW       USE        FROM LAKE
   1  0.0000E+00  0.0000E+00  0.0000E+00  0.0000E+00  0.0000E+00       0.0000E+00

      CONNECTED LAKE   TIME-STEP         STAGE-CHANGE          PERCENT
 LAKE    INFLUX      SURFACE AREA   TIME STEP  CUMULATIVE    DISCREPANCY
   1   0.0000E+00     0.0000E+00  -1.3306E-03  7.4458E-04       0.000
 --------------------------------------------------------------------------------



            CUMULATIVE HYDROLOGIC BUDGET SUMMARIES FOR SIMULATED LAKES
     (ALL FLUID FLUXES ARE SUMS OF VOLUMES ADDED TO THE LAKE SINCE INITIAL TIME)
     ---------------------------------------------------------------------------
 LAKE       PRECIP       EVAP     SPECIFIED RUNOFF   COMPUTED RUNOFF   TOTAL RUNOFF
   1     0.0000E+00  1.6028E+06       0.0000E+00       0.0000E+00       0.0000E+00

            GROUND WATER            SURFACE WATER       UZF INFIL.
 LAKE    INFLOW     OUTFLOW      INFLOW     OUTFLOW     FROM LAKE
   1  0.0000E+00  0.0000E+00  1.9325E+08  4.8784E+07    1.4286E+08

         WATER    CONNECTED LAKE   CHANGE       PERCENT
 LAKE     USE         INFLUX       IN VOL.    DISCREPANCY
   1   0.0000E+00   0.0000E+00   0.0000E+00     -0.000
 --------------------------------------------------------------------------------

 UBDSV3 SAVING "           GW ET" ON UNIT  61 AT TIME STEP    15, STRESS PERIOD   7
 UBDSV3 SAVING "    UZF RECHARGE" ON UNIT  61 AT TIME STEP    15, STRESS PERIOD   7
 UBDSV3 SAVING " SURFACE LEAKAGE" ON UNIT  61 AT TIME STEP    15, STRESS PERIOD   7
 UBDSV3 SAVING "       HORT+DUNN" ON UNIT  61 AT TIME STEP    15, STRESS PERIOD   7
 UBDSV3 SAVING "  STORAGE CHANGE" ON UNIT  61 AT TIME STEP    15, STRESS PERIOD   7


UNSATURATED ZONE PACKAGE VOLUMETRIC BUDGET FOR  TIME STEP    15 STRESS PERIOD    7
  ------------------------------------------------------------------------------



     CUMULATIVE VOLUMES      L**3       RATES FOR THIS TIME STEP      L**3/T
     ------------------                 ------------------------

           IN:                                      IN:
           ---                                      ---
        INFILTRATION =  1386573633.9088          INFILTRATION =          25.2931

          OUT:                                     OUT:
          ----                                     ----
              UZF ET =  1247104099.7883                UZF ET =          60.4065
        UZF RECHARGE =   646655220.8962          UZF RECHARGE =          11.6226

            IN - OUT =  -507185686.7757              IN - OUT =         -46.7361

          STORAGE:                                 STORAGE:
          --------                                 --------
      STORAGE CHANGE =  -507231545.3434        STORAGE CHANGE =         -46.7256

 PERCENT DISCREPANCY IS DIFFERENCE BETWEEN IN-OUT MINUS CHANGE IN STORAGE
 DIVIDED BY THE AVERAGE OF IN AND OUT TIMES 100

 PERCENT DISCREPANCY =           0.00     PERCENT DISCREPANCY =          -0.01






1
              HEAD IN LAYER   1 AT END OF TIME STEP    15 IN STRESS PERIOD    7
  -----------------------------------------------------------------------------

           1       2       3       4       5       6       7       8       9      10
 ...................................................................................
   1  6999.00 6999.00 6999.00 6999.00 6999.00 6999.00 6999.00 6999.00 6999.00 6999.00
   2  6999.00 6999.00 6999.00 6999.00 6999.00 6999.00 6999.00 6999.00 6999.00 6999.00
   3  6999.00 6999.00 6999.00 6999.00 6999.00 6999.00 6999.00 6999.00 6999.00 6999.00
   4  6999.00 6999.00 6999.00 6999.00 1074.50 6999.00 6999.00 6999.00 6999.00 6999.00
   5  6999.00 6999.00 6999.00 6999.00 6999.00 6999.00 6999.00 6999.00 6999.00 6999.00
   6  6999.00 6999.00 6999.00 6999.00 6999.00 6999.00 6999.00 6999.00 6999.00 6999.00
   7  6999.00 6999.00 6999.00 6999.00 6999.00 6999.00 6999.00 6999.00 6999.00 6999.00
   8  6999.00 6999.00 6999.00 6999.00 6999.00 6999.00 6999.00 6999.00 6999.00 6999.00
   9  6999.00 6999.00 6999.00 6999.00 6999.00 6999.00 6999.00 6999.00 6999.00 6999.00
  10  6999.00 6999.00 6999.00 6999.00 6999.00 6999.00 6999.00 6999.00 6999.00 6999.00
  11  6999.00 6999.00 6999.00 6999.00 6999.00 6999.00 6999.00 6999.00 6999.00 6999.00
  12  6999.00 6999.00 6999.00 6999.00 6999.00 6999.00 6999.00 6999.00 6999.00 6999.00
  13  6999.00 6999.00 6999.00 6999.00 6999.00 6999.00 6999.00 6999.00 6999.00 6999.00
  14  6999.00 6999.00 6999.00 6999.00 6999.00 6999.00 6999.00 6999.00 6999.00 6999.00
  15  6999.00 6999.00 6999.00 6999.00 6999.00 6999.00 6999.00 6999.00 6999.00 6999.00
1
              HEAD IN LAYER   2 AT END OF TIME STEP    15 IN STRESS PERIOD    7
  -----------------------------------------------------------------------------

           1       2       3       4       5       6       7       8       9      10
 ...................................................................................
   1  1093.62 1087.67 6999.00 6999.00 6999.00 6999.00 6999.00 6999.00 6999.00 6999.00
   2  1087.24 1086.46 1077.81 6999.00 6999.00 1067.39 1066.85 1064.93 6999.00 6999.00
   3  6999.00 1073.68 1073.79 1070.21 1068.82 1066.92 1065.57 1063.53 6999.00 6999.00
   4  1061.51 1062.50 1063.25 1061.67 1061.05 1058.79 1057.37 1059.67 1057.97 6999.00
   5  1057.62 1054.86 1053.75 1053.65 1053.90 1053.93 1052.02 1052.47 1055.40 1057.60
   6  1053.50 1049.53 1047.42 1046.88 1047.53 1049.45 1049.07 1050.20 1052.30 1057.19
   7  1050.56 1044.66 1042.25 1041.51 1042.52 1045.16 1045.71 1047.03 1049.02 6999.00
   8  6999.00 1039.19 1037.54 1036.86 1037.97 1040.84 1041.45 1043.31 1045.27 6999.00
   9  6999.00 1033.42 1032.52 1032.19 1033.41 1036.25 1037.03 1037.66 1040.65 6999.00
  10  6999.00 1027.48 1027.37 1027.81 1029.28 1031.90 1034.19 1034.09 1036.98 1040.23
  11  6999.00 1019.74 1020.82 1023.76 1025.99 1028.75 1031.73 1032.03 1035.06 6999.00
  12  1003.20 1009.86 1014.09 1018.63 1022.41 1026.25 1029.54 1031.30 1034.69 6999.00
  13   996.21 1001.09 1007.65 1013.73 1019.45 1025.07 1029.48 1034.19 1036.74 6999.00
  14  6999.00 1006.98 1010.96 1015.90 1021.03 1025.99 1030.43 1035.25 1039.36 6999.00
  15  6999.00 6999.00 1018.42 1021.24 1024.89 1027.97 6999.00 6999.00 6999.00 6999.00

 HEAD WILL BE SAVED ON UNIT   58 AT END OF TIME STEP   15, STRESS PERIOD    7
1
  VOLUMETRIC BUDGET FOR ENTIRE MODEL AT END OF TIME STEP   15, STRESS PERIOD   7
  ------------------------------------------------------------------------------

     CUMULATIVE VOLUMES      L**3       RATES FOR THIS TIME STEP      L**3/T
     ------------------                 ------------------------

           IN:                                      IN:
           ---                                      ---
             STORAGE =   148754880.0000               STORAGE =           6.5747
       CONSTANT HEAD =           0.0000         CONSTANT HEAD =           0.0000
               WELLS =           0.0000                 WELLS =           0.0000
     HEAD DEP BOUNDS =     3945582.2500       HEAD DEP BOUNDS =           0.2143
      STREAM LEAKAGE =  1356351104.0000        STREAM LEAKAGE =          78.1648
       LAKE  SEEPAGE =           0.0000         LAKE  SEEPAGE =           0.0000
        UZF RECHARGE =   646655232.0000          UZF RECHARGE =          11.6226
               GW ET =           0.0000                 GW ET =           0.0000
     SURFACE LEAKAGE =           0.0000       SURFACE LEAKAGE =           0.0000

            TOTAL IN =  2155706880.0000              TOTAL IN =          96.5764

          OUT:                                     OUT:
          ----                                     ----
             STORAGE =  1250752256.0000               STORAGE =          45.1889
       CONSTANT HEAD =           0.0000         CONSTANT HEAD =           0.0000
               WELLS =   289080000.0000                 WELLS =          20.0000
     HEAD DEP BOUNDS =     5541869.0000       HEAD DEP BOUNDS =           0.3120
      STREAM LEAKAGE =   335779808.0000        STREAM LEAKAGE =          18.4474
       LAKE  SEEPAGE =           0.0000         LAKE  SEEPAGE =           0.0000
        UZF RECHARGE =           0.0000          UZF RECHARGE =           0.0000
               GW ET =   247904832.0000                 GW ET =          16.6054
     SURFACE LEAKAGE =    68168160.0000       SURFACE LEAKAGE =           1.0176

           TOTAL OUT =  2197227008.0000             TOTAL OUT =         101.5713

            IN - OUT =   -41520128.0000              IN - OUT =          -4.9949

 PERCENT DISCREPANCY =          -1.91     PERCENT DISCREPANCY =          -5.04






         TIME SUMMARY AT END OF TIME STEP   15 IN STRESS PERIOD    7
                    SECONDS     MINUTES      HOURS       DAYS        YEARS
                    -----------------------------------------------------------
   TIME STEP LENGTH 1.75200E+05  2920.0      48.667      2.0278     5.55175E-03
 STRESS PERIOD TIME 2.62800E+06  43800.      730.00      30.417     8.32763E-02
         TOTAL TIME 1.83960E+07 3.06600E+05  5110.0      212.92     0.58293    
1
1
                            STRESS PERIOD NO.    8, LENGTH =   2628000.    
                            -----------------------------------------------

                              NUMBER OF TIME STEPS =    15

                               MULTIPLIER FOR DELT =     1.000

                            INITIAL TIME STEP SIZE =   175200.0    

      0 WELLS

 REUSING NON-PARAMETER GHB CELLS FROM LAST STRESS PERIOD

      2 GHB CELLS

 REUSING STREAM SEGMENT DATA FROM LAST STRESS PERIOD



            AREAL INFILTRATION RATE
 READING ON UNIT   19 WITH FORMAT: (10F4.0)            

            1           2           3           4           5           6           7           8           9          10
 ........................................................................................................................
   1   5.0000E-09  1.0000E-08   0.000       0.000       0.000       0.000       0.000       0.000       0.000       0.000    
   2   1.0000E-08  5.0000E-09  1.0000E-08   0.000       0.000      4.0000E-08  4.0000E-08  2.5000E-08   0.000       0.000    
   3    0.000      2.5000E-08  5.0000E-09  5.0000E-09  4.0000E-08  4.0000E-08  2.5000E-08  2.5000E-08   0.000       0.000    
   4   4.0000E-08  2.5000E-08  5.0000E-09  5.0000E-09  5.0000E-09  5.0000E-09  5.0000E-09  5.0000E-09  1.0000E-08   0.000    
   5   4.0000E-08  2.5000E-08  5.0000E-09  5.0000E-09  5.0000E-09  5.0000E-09  5.0000E-09  5.0000E-09  5.0000E-09  5.0000E-09
   6   4.0000E-08  2.5000E-08  2.5000E-08  1.0000E-08  1.0000E-08  5.0000E-09  5.0000E-09  5.0000E-09  5.0000E-09  2.5000E-08
   7   4.0000E-08  2.5000E-08  2.5000E-08  1.0000E-08  1.0000E-08  5.0000E-09  5.0000E-09  1.0000E-08  1.0000E-08   0.000    
   8    0.000      2.5000E-08  2.5000E-08  1.0000E-08  1.0000E-08  5.0000E-09  5.0000E-09  1.0000E-08  2.5000E-08   0.000    
   9    0.000      2.5000E-08  2.5000E-08  1.0000E-08  1.0000E-08  5.0000E-09  5.0000E-09  1.0000E-08  2.5000E-08   0.000    
  10    0.000      2.5000E-08  2.5000E-08  1.0000E-08  1.0000E-08  5.0000E-09  5.0000E-09  1.0000E-08  2.5000E-08  4.0000E-08
  11    0.000      5.0000E-09  5.0000E-09  5.0000E-09  5.0000E-09  5.0000E-09  5.0000E-09  1.0000E-08  2.5000E-08   0.000    
  12   5.0000E-09  5.0000E-09  5.0000E-09  5.0000E-09  5.0000E-09  5.0000E-09  5.0000E-09  5.0000E-09  1.0000E-08   0.000    
  13   5.0000E-09  5.0000E-09  1.0000E-08  1.0000E-08  1.0000E-08  1.0000E-08  1.0000E-08  5.0000E-09  5.0000E-09   0.000    
  14    0.000      1.0000E-08  2.5000E-08  2.5000E-08  2.5000E-08  2.5000E-08  2.5000E-08  1.0000E-08  5.0000E-09   0.000    
  15    0.000       0.000      4.0000E-08  4.0000E-08  4.0000E-08  4.0000E-08   0.000       0.000       0.000       0.000    

USING ET RATE FROM PREVIOUS STRESS PERIOD. CURRENT PERIOD IS:       8

 USING ET EXTINCTION DEPTH FROM PREVIOUS STRESS PERIOD. CURRENT PERIOD IS:       8

 USING EXTINCTION WATER CONTENT FROM PREVIOUS STRESS PERIOD. CURRENT PERIOD IS:       8




 If any subsequent steady-state stress periods, min. and max. stages for each lake will be read in Record 9a.




 REUSING LAKE CONFIGURATION DATA FROM LAST STRESS PERIOD


 LAKE       PRECIP     EVAP     RUNOFF   WITHDRAW   BOTTOM     AREA
----------------------------------------------------------------------
   1     0.000E+00 4.000E-08 0.000E+00  0.000E+00 1.074E+03 2.500E+07




         C               INTERFACE CONDUCTANCES BETWEEN LAKE AND AQUIFER CELLS
   L     O          (IF TYPE = 6, CONDUCTANCE (L^2/T) IS BETWEEN AQUIFER CELL AND OVERLYING LAKE CELL.)
   A     L  L  T    (IF TYPE = 1 TO 4, CONDUCTANCES ARE PER UNIT SATURATED THICKNESS (L/T).)
   Y  R  U  A  Y
   E  O  M  K  P                        LAKEBED      C O N D U C T A N C E S
   R  W  N  E  E     DELTA Y   DELTA X  LEAKANCE   LAKEBED   AQUIFER  COMBINED
 _______________________________________________________________________________
   1  4  4  1  2    5.00E+03  5.00E+03  5.00E-02  2.50E+02  6.00E-03  6.00E-03
   1  3  5  1  3    5.00E+03  5.00E+03  5.00E-02  2.50E+02  1.20E-03  1.20E-03
   2  4  5  1  6    5.00E+03  5.00E+03  5.00E-02  1.25E+06  9.42E+00  9.42E+00
   1  5  5  1  4    5.00E+03  5.00E+03  5.00E-02  2.50E+02  6.00E-03  6.00E-03
   1  4  6  1  1    5.00E+03  5.00E+03  5.00E-02  2.50E+02  6.00E-03  6.00E-03
      LAKE     INFLOWING STREAM SEGMENT
         1                  9

 MAXIMUM NUMBER OF STREAMS INFLOWING TO A LAKE IS    1

      LAKE     OUTFLOWING STREAM SEGMENT
         1                 10

 MAXIMUM NUMBER OF STREAMS OUTFLOWING FROM A LAKE IS    1

 
 SOLVING FOR HEAD 
                                                   Max.-Head-Change                         Max.-Flux-Residual
  Residual-Control   Outer-Iter.   Inner-Iter.     Column Row Layer    Maximum-Head-Change  Column Row Layer    Maximum-Flux-Residual          L2-NORM 
          0                 1           2             4    6     2       0.1184895749E+00       4    6    2         0.3233385237E+01      0.1065625442E+02
          0                 2           2             5   10     2      -0.6635729701E-02       5   10    2        -0.1967697180E+00      0.6036783404E+00
          0                 3           1             3    3     2       0.2807977339E-03       3    3    2         0.8327414667E-02      0.2010011343E-01

    ------------------------------------------------
       NWT REQUIRED            3 OUTER ITERATIONS 
       AND A TOTAL OF          5 INNER ITERATIONS.
    ------------------------------------------------

 NO OUTPUT CONTROL FOR STRESS PERIOD    8   TIME STEP    1
 ..........LAKE  1 IS DRY..........
 
 SOLVING FOR HEAD 
                                                   Max.-Head-Change                         Max.-Flux-Residual
  Residual-Control   Outer-Iter.   Inner-Iter.     Column Row Layer    Maximum-Head-Change  Column Row Layer    Maximum-Flux-Residual          L2-NORM 
          0                 1           2             3    3     2       0.1535239846E+00       3    3    2         0.4120725270E+01      0.1312895792E+02
          0                 2           2             3    3     2      -0.1442529119E-01       3    3    2        -0.4067905534E+00      0.9526513551E+00
          0                 3           1             3    3     2       0.8086580726E-03       3    3    2         0.2390345141E-01      0.4480941166E-01

    ------------------------------------------------
       NWT REQUIRED            3 OUTER ITERATIONS 
       AND A TOTAL OF          5 INNER ITERATIONS.
    ------------------------------------------------

 NO OUTPUT CONTROL FOR STRESS PERIOD    8   TIME STEP    2
 ..........LAKE  1 IS DRY..........
 
 SOLVING FOR HEAD 
                                                   Max.-Head-Change                         Max.-Flux-Residual
  Residual-Control   Outer-Iter.   Inner-Iter.     Column Row Layer    Maximum-Head-Change  Column Row Layer    Maximum-Flux-Residual          L2-NORM 
          0                 1           2             3    3     2       0.3655096679E+00       3    3    2         0.9917713599E+01      0.2621721884E+02
          0                 2           2             3    3     2      -0.3440634684E-01       5   13    2        -0.1195064449E+01      0.2671812944E+01
          0                 3           2             3    3     2       0.1923086264E-02       3    3    2         0.5677349750E-01      0.1293203501E+00
          0                 4           1             3    3     2      -0.3679513072E-04       3    3    2        -0.1130259022E-02      0.2363651434E-02

    ------------------------------------------------
       NWT REQUIRED            4 OUTER ITERATIONS 
       AND A TOTAL OF          7 INNER ITERATIONS.
    ------------------------------------------------

 NO OUTPUT CONTROL FOR STRESS PERIOD    8   TIME STEP    3
 ..........LAKE  1 IS DRY..........
 
 SOLVING FOR HEAD 
                                                   Max.-Head-Change                         Max.-Flux-Residual
  Residual-Control   Outer-Iter.   Inner-Iter.     Column Row Layer    Maximum-Head-Change  Column Row Layer    Maximum-Flux-Residual          L2-NORM 
          0                 1           2             3    3     2       0.3512744472E+00       3    3    2         0.9520311764E+01      0.2311528395E+02
          0                 2           2             3    3     2      -0.3308664247E-01       3    3    2        -0.9364924840E+00      0.2026813535E+01
          0                 3           2             4   13     2      -0.2370542452E-02       4   13    2        -0.5498529599E-01      0.1190412074E+00
          0                 4           1             4   13     2       0.1294578887E-03       4   13    2         0.3066900483E-02      0.3875526812E-02

    ------------------------------------------------
       NWT REQUIRED            4 OUTER ITERATIONS 
       AND A TOTAL OF          7 INNER ITERATIONS.
    ------------------------------------------------

 NO OUTPUT CONTROL FOR STRESS PERIOD    8   TIME STEP    4
 ..........LAKE  1 IS DRY..........
 
 SOLVING FOR HEAD 
                                                   Max.-Head-Change                         Max.-Flux-Residual
  Residual-Control   Outer-Iter.   Inner-Iter.     Column Row Layer    Maximum-Head-Change  Column Row Layer    Maximum-Flux-Residual          L2-NORM 
          0                 1           2             3    3     2       0.3378853914E+00       3    3    2         0.9147339039E+01      0.2088667704E+02
          0                 2           2             3    3     2      -0.3185001724E-01       3    3    2        -0.9008168281E+00      0.1759445293E+01
          0                 3           2             3   13     2       0.2635158332E-02       3   13    2         0.1364739665E+00      0.1642147952E+00
          0                 4           1             3   13     2      -0.4086506133E-04       3   13    2        -0.2239675197E-02      0.3097431649E-02

    ------------------------------------------------
       NWT REQUIRED            4 OUTER ITERATIONS 
       AND A TOTAL OF          7 INNER ITERATIONS.
    ------------------------------------------------

 OUTPUT CONTROL FOR STRESS PERIOD    8   TIME STEP    5
    PRINT BUDGET
    SAVE BUDGET

  HEAD DEP BOUNDS   PERIOD    8   STEP     5
 BOUNDARY      1   LAYER   2   ROW    13   COL     1   RATE   -0.324640    
 BOUNDARY      2   LAYER   2   ROW    14   COL     9   RATE    0.214254    



 STREAM LISTING     PERIOD      8   STEP        5

 LAYER ROW COL. STREAM  RCH.  FLOW INTO     FLOW TO   FLOW OUT OF   OVRLND.     DIRECT     STREAM       STREAM     STREAM     STREAM   STREAMBED  STREAMBED
                SEG.NO.  NO.  STRM. RCH.    AQUIFER    STRM. RCH.    RUNOFF     PRECIP       ET          HEAD       DEPTH      WIDTH   CONDCTNC.   GRADIENT

   2    1    1     1     1    6.2700E+02  5.2906E+00   6.2171E+02  0.000E+00  0.000E+00  0.000E+00  1.09661E+03  3.562E+00  4.381E+01  1.971E+00  8.946E-01
   2    2    2     1     2    6.2171E+02  1.3396E+01   6.0831E+02  0.000E+00  0.000E+00  0.000E+00  1.09160E+03  3.542E+00  4.356E+01  3.049E+00  1.464E+00
   2    3    3     1     3    6.0831E+02  1.6853E+01   5.9146E+02  0.000E+00  0.000E+00  0.000E+00  1.08593E+03  3.509E+00  4.315E+01  2.589E+00  2.170E+00
   2    3    4     1     4    5.9146E+02  1.5346E+01   5.7611E+02  0.000E+00  0.000E+00  0.000E+00  1.08088E+03  3.474E+00  4.271E+01  2.371E+00  2.158E+00
   2    4    5     2     1    5.6611E+02  0.0000E+00   5.6611E+02  0.000E+00  0.000E+00  0.000E+00  1.07975E+03  7.815E+00  1.200E+01  7.800E-01  3.605E+00
   2    5    6     2     2    5.6611E+02  6.4517E+00   5.5966E+02  0.000E+00  0.000E+00  0.000E+00  1.07426E+03  7.753E+00  1.200E+01  6.000E-01  3.584E+00
   2    6    6     2     3    5.5966E+02  6.4193E+00   5.5324E+02  0.000E+00  0.000E+00  0.000E+00  1.06949E+03  7.699E+00  1.200E+01  6.000E-01  3.566E+00
   2    7    6     2     4    5.5324E+02  6.3868E+00   5.4686E+02  0.000E+00  0.000E+00  0.000E+00  1.06472E+03  7.645E+00  1.200E+01  6.000E-01  3.548E+00
   2    8    6     2     5    5.4686E+02  6.3544E+00   5.4050E+02  0.000E+00  0.000E+00  0.000E+00  1.05995E+03  7.591E+00  1.200E+01  6.000E-01  3.530E+00
   2    3    5     3     1    1.0000E+01  2.8252E+00   7.1748E+00  0.000E+00  0.000E+00  0.000E+00  1.07555E+03  1.909E+00  9.636E+00  7.227E-01  1.955E+00
   2    3    6     3     2    7.1748E+00  2.4905E+00   4.6843E+00  0.000E+00  0.000E+00  0.000E+00  1.07264E+03  1.727E+00  8.909E+00  6.682E-01  1.864E+00
   2    3    7     3     3    4.6843E+00  1.9718E+00   2.7125E+00  0.000E+00  0.000E+00  0.000E+00  1.06987E+03  1.555E+00  8.218E+00  5.547E-01  1.777E+00
   2    4    8     3     4    2.7125E+00  2.2567E+00   4.5579E-01  0.000E+00  0.000E+00  0.000E+00  1.06682E+03  1.364E+00  7.455E+00  6.709E-01  1.682E+00
   2    5    8     3     5    4.5579E-01  4.5579E-01   0.0000E+00  0.000E+00  0.000E+00  0.000E+00  1.06362E+03  0.000E+00  6.655E+00  4.991E-01  1.582E+00
   2    6    8     3     6    0.0000E+00  0.0000E+00   0.0000E+00  0.000E+00  0.000E+00  0.000E+00  1.06055E+03  0.000E+00  6.145E+00  1.844E-01  1.000E+00
   2    5   10     4     1    1.0000E+01  9.0525E-01   9.0947E+00  0.000E+00  0.000E+00  0.000E+00  1.07835E+03  6.210E-01  1.000E+01  2.500E-01  1.207E+00
   2    5    9     4     2    9.0947E+00  1.7835E+00   7.3113E+00  0.000E+00  0.000E+00  0.000E+00  1.07148E+03  5.670E-01  1.000E+01  5.000E-01  1.189E+00
   2    6    8     4     3    7.3113E+00  1.2257E+00   6.0855E+00  0.000E+00  0.000E+00  0.000E+00  1.06368E+03  5.021E-01  1.000E+01  3.500E-01  1.167E+00
   2    6    8     5     1    6.0855E+00  1.4716E+00   4.6139E+00  0.000E+00  0.000E+00  0.000E+00  1.05854E+03  5.396E-01  1.039E+01  4.158E-01  1.180E+00
   2    7    7     5     2    4.6139E+00  1.4897E+00   3.1242E+00  0.000E+00  0.000E+00  0.000E+00  1.05398E+03  4.817E-01  8.557E+00  4.279E-01  1.161E+00
   2    8    7     5     3    3.1242E+00  8.2855E-01   2.2957E+00  0.000E+00  0.000E+00  0.000E+00  1.04968E+03  4.253E-01  6.911E+00  2.419E-01  1.142E+00
   2    8    6     5     4    2.2957E+00  4.9455E-01   1.8011E+00  0.000E+00  0.000E+00  0.000E+00  1.04664E+03  3.856E-01  5.843E+00  1.461E-01  1.129E+00
   2    9    6     6     1    5.4230E+02  6.3816E+00   5.3592E+02  0.000E+00  0.000E+00  0.000E+00  1.05036E+03  7.636E+00  1.200E+01  6.000E-01  3.545E+00
   2   10    7     6     2    5.3592E+02  6.3486E+00   5.2957E+02  0.000E+00  0.000E+00  0.000E+00  1.04576E+03  7.581E+00  1.200E+01  6.000E-01  3.527E+00
   2   11    7     6     3    5.2957E+02  5.4724E+00   5.2410E+02  0.000E+00  0.000E+00  0.000E+00  1.04117E+03  7.530E+00  1.200E+01  6.000E-01  3.040E+00
   2   12    7     6     4    5.2410E+02  4.0704E+00   5.2003E+02  0.000E+00  0.000E+00  0.000E+00  1.03658E+03  7.488E+00  1.200E+01  6.000E-01  2.261E+00
   2   13    7     6     5    5.2003E+02  9.1105E-01   5.1912E+02  0.000E+00  0.000E+00  0.000E+00  1.03338E+03  7.466E+00  1.200E+01  2.400E-01  1.265E+00
   2   14    9     7     1    1.5000E+02  2.8109E+00   1.4719E+02  0.000E+00  0.000E+00  0.000E+00  1.03986E+03  2.284E+00  5.528E+01  5.591E+00  1.676E-01
   2   13    8     7     2    1.4719E+02  3.5241E+00   1.4367E+02  0.000E+00  0.000E+00  0.000E+00  1.03477E+03  2.267E+00  5.520E+01  6.141E+00  1.913E-01
   2   13    7     7     3    1.4367E+02  5.3640E-01   1.4313E+02  0.000E+00  0.000E+00  0.000E+00  1.02968E+03  2.256E+00  5.515E+01  5.577E+00  3.206E-02
   2   13    6     8     1    6.6225E+02  6.2670E+00   6.5803E+02  2.050E+00  0.000E+00  0.000E+00  1.02668E+03  4.800E+00  6.138E+01  6.284E+00  3.324E-01
   2   13    5     8     2    6.5803E+02  3.0329E+00   6.5705E+02  2.050E+00  0.000E+00  0.000E+00  1.02042E+03  4.793E+00  6.135E+01  6.281E+00  1.610E-01
   2   13    4     8     3    6.5705E+02  2.0618E-01   6.5889E+02  2.050E+00  0.000E+00  0.000E+00  1.01417E+03  4.794E+00  6.135E+01  6.282E+00  1.094E-02
   2   13    3     8     4    6.5889E+02 -4.3737E-01   6.6138E+02  2.050E+00  0.000E+00  0.000E+00  1.00793E+03  4.800E+00  6.138E+01  6.284E+00 -2.320E-02
   2   13    2     8     5    6.6138E+02  6.2280E-01   6.6281E+02  2.050E+00  0.000E+00  0.000E+00  1.00168E+03  4.805E+00  6.140E+01  6.287E+00  3.302E-02
   2   13    1     8     6    6.6281E+02  5.2848E-01   6.6351E+02  1.230E+00  0.000E+00  0.000E+00  9.96683E+02  4.808E+00  6.141E+01  3.773E+00  4.669E-02
   2    4    5     9     1    0.0000E+00  0.0000E+00   0.0000E+00  0.000E+00  0.000E+00  0.000E+00  1.06000E+03  2.096E-04  2.000E+01  2.000E-03 -3.453E-01
   2    4    5    10     1    0.0000E+00  0.0000E+00   0.0000E+00  0.000E+00  0.000E+00  0.000E+00  1.08000E+03  0.000E+00  2.000E+01  2.000E-03  1.000E+00



 ..........LAKE  1 IS DRY..........

     SECTIONS OF THE LAKE BOTTOM HAVE BECOME DRY.  THE DRYSECTIONS
     LIE ABOVE THE FOLLOWING  1 AQUIFER CELLS (LAYER,ROW,COLUMN):
     (  2,  4,  5)  (

 PERIOD     8     TIME STEP     5     TIME STEP LENGTH  1.7520E+05
 PERIOD TIME  8.7600E+05     TOTAL SIMULATION TIME  1.9272E+07


                 HYDROLOGIC BUDGET SUMMARIES FOR SIMULATED LAKES
     (ALL FLUID FLUXES ARE VOLUMES ADDED TO THE LAKE DURING PRESENT TIME STEP)
     ----------------------------------------------------------------------------------------
 LAKE    STAGE         VOLUME     VOL. CHANGE      PRECIP     EVAPORATION    SPECIFIED RUNOFF     COMPUTED RUNOFF    TOTAL RUNOFF
   1  1.074500E+03  0.000000E+00  0.000000E+00  0.000000E+00  0.000000E+00   0.000000E+00          0.000000E+00      0.000000E+00

            GROUND WATER            SURFACE WATER        WATER          UZF INFIL.
 LAKE    INFLOW     OUTFLOW      INFLOW     OUTFLOW       USE        FROM LAKE
   1  0.0000E+00  0.0000E+00  0.0000E+00  0.0000E+00  0.0000E+00       0.0000E+00

      CONNECTED LAKE   TIME-STEP         STAGE-CHANGE          PERCENT
 LAKE    INFLUX      SURFACE AREA   TIME STEP  CUMULATIVE    DISCREPANCY
   1   0.0000E+00     0.0000E+00  -1.3306E-03  7.4458E-04       0.000
 --------------------------------------------------------------------------------



            CUMULATIVE HYDROLOGIC BUDGET SUMMARIES FOR SIMULATED LAKES
     (ALL FLUID FLUXES ARE SUMS OF VOLUMES ADDED TO THE LAKE SINCE INITIAL TIME)
     ---------------------------------------------------------------------------
 LAKE       PRECIP       EVAP     SPECIFIED RUNOFF   COMPUTED RUNOFF   TOTAL RUNOFF
   1     0.0000E+00  1.6028E+06       0.0000E+00       0.0000E+00       0.0000E+00

            GROUND WATER            SURFACE WATER       UZF INFIL.
 LAKE    INFLOW     OUTFLOW      INFLOW     OUTFLOW     FROM LAKE
   1  0.0000E+00  0.0000E+00  1.9325E+08  4.8784E+07    1.4286E+08

         WATER    CONNECTED LAKE   CHANGE       PERCENT
 LAKE     USE         INFLUX       IN VOL.    DISCREPANCY
   1   0.0000E+00   0.0000E+00   0.0000E+00     -0.000
 --------------------------------------------------------------------------------

 UBDSV3 SAVING "           GW ET" ON UNIT  61 AT TIME STEP     5, STRESS PERIOD   8
 UBDSV3 SAVING "    UZF RECHARGE" ON UNIT  61 AT TIME STEP     5, STRESS PERIOD   8
 UBDSV3 SAVING " SURFACE LEAKAGE" ON UNIT  61 AT TIME STEP     5, STRESS PERIOD   8
 UBDSV3 SAVING "       HORT+DUNN" ON UNIT  61 AT TIME STEP     5, STRESS PERIOD   8
 UBDSV3 SAVING "  STORAGE CHANGE" ON UNIT  61 AT TIME STEP     5, STRESS PERIOD   8


UNSATURATED ZONE PACKAGE VOLUMETRIC BUDGET FOR  TIME STEP     5 STRESS PERIOD    8
  ------------------------------------------------------------------------------



     CUMULATIVE VOLUMES      L**3       RATES FOR THIS TIME STEP      L**3/T
     ------------------                 ------------------------

           IN:                                      IN:
           ---                                      ---
        INFILTRATION =  1423372991.1353          INFILTRATION =          41.8530

          OUT:                                     OUT:
          ----                                     ----
              UZF ET =  1289848042.5877                UZF ET =          37.7559
        UZF RECHARGE =   658148441.8859          UZF RECHARGE =          13.0979

            IN - OUT =  -524623493.3383              IN - OUT =          -9.0009

          STORAGE:                                 STORAGE:
          --------                                 --------
      STORAGE CHANGE =  -524661911.5280        STORAGE CHANGE =          -8.9776

 PERCENT DISCREPANCY IS DIFFERENCE BETWEEN IN-OUT MINUS CHANGE IN STORAGE
 DIVIDED BY THE AVERAGE OF IN AND OUT TIMES 100

 PERCENT DISCREPANCY =           0.00     PERCENT DISCREPANCY =          -0.05






1
  VOLUMETRIC BUDGET FOR ENTIRE MODEL AT END OF TIME STEP    5, STRESS PERIOD   8
  ------------------------------------------------------------------------------

     CUMULATIVE VOLUMES      L**3       RATES FOR THIS TIME STEP      L**3/T
     ------------------                 ------------------------

           IN:                                      IN:
           ---                                      ---
             STORAGE =   150466544.0000               STORAGE =           0.2811
       CONSTANT HEAD =           0.0000         CONSTANT HEAD =           0.0000
               WELLS =           0.0000                 WELLS =           0.0000
     HEAD DEP BOUNDS =     4133266.5000       HEAD DEP BOUNDS =           0.2143
      STREAM LEAKAGE =  1460341120.0000        STREAM LEAKAGE =         135.4097
       LAKE  SEEPAGE =           0.0000         LAKE  SEEPAGE =           0.0000
        UZF RECHARGE =   658148416.0000          UZF RECHARGE =          13.0979
               GW ET =           0.0000                 GW ET =           0.0000
     SURFACE LEAKAGE =           0.0000       SURFACE LEAKAGE =           0.0000

            TOTAL IN =  2273089280.0000              TOTAL IN =         149.0031

          OUT:                                     OUT:
          ----                                     ----
             STORAGE =  1349492736.0000               STORAGE =         128.1765
       CONSTANT HEAD =           0.0000         CONSTANT HEAD =           0.0000
               WELLS =   289080000.0000                 WELLS =           0.0000
     HEAD DEP BOUNDS =     5819785.5000       HEAD DEP BOUNDS =           0.3246
      STREAM LEAKAGE =   340926400.0000        STREAM LEAKAGE =           0.4374
       LAKE  SEEPAGE =           0.0000         LAKE  SEEPAGE =           0.0000
        UZF RECHARGE =           0.0000          UZF RECHARGE =           0.0000
               GW ET =   262814560.0000                 GW ET =          17.4512
     SURFACE LEAKAGE =    72868480.0000       SURFACE LEAKAGE =          11.0830

           TOTAL OUT =  2321001984.0000             TOTAL OUT =         157.4727

            IN - OUT =   -47912704.0000              IN - OUT =          -8.4697

 PERCENT DISCREPANCY =          -2.09     PERCENT DISCREPANCY =          -5.53






         TIME SUMMARY AT END OF TIME STEP    5 IN STRESS PERIOD    8
                    SECONDS     MINUTES      HOURS       DAYS        YEARS
                    -----------------------------------------------------------
   TIME STEP LENGTH 1.75200E+05  2920.0      48.667      2.0278     5.55175E-03
 STRESS PERIOD TIME 8.76000E+05  14600.      243.33      10.139     2.77588E-02
         TOTAL TIME 1.92720E+07 3.21200E+05  5353.3      223.06     0.61069    
1
 
 SOLVING FOR HEAD 
                                                   Max.-Head-Change                         Max.-Flux-Residual
  Residual-Control   Outer-Iter.   Inner-Iter.     Column Row Layer    Maximum-Head-Change  Column Row Layer    Maximum-Flux-Residual          L2-NORM 
          0                 1           2             4   13     2      -0.1903267478E+00       4   13    2        -0.4373775866E+01      0.1298210758E+02
          0                 2           2             4   13     2       0.3047193906E-01       4   13    2         0.1416594912E+01      0.1642217126E+01
          0                 3           1             4   13     2      -0.1857156094E-02       4   13    2        -0.9122026034E-01      0.9970453897E-01
          0                 4           1             2   13     2      -0.3581656531E-04       4   13    2         0.1621371439E-02      0.2295554173E-02

    ------------------------------------------------
       NWT REQUIRED            4 OUTER ITERATIONS 
       AND A TOTAL OF          6 INNER ITERATIONS.
    ------------------------------------------------

 NO OUTPUT CONTROL FOR STRESS PERIOD    8   TIME STEP    6
 ..........LAKE  1 IS DRY..........
 
 SOLVING FOR HEAD 
                                                   Max.-Head-Change                         Max.-Flux-Residual
  Residual-Control   Outer-Iter.   Inner-Iter.     Column Row Layer    Maximum-Head-Change  Column Row Layer    Maximum-Flux-Residual          L2-NORM 
          0                 1           2             3    2     2       0.1188333778E+00       3    2    2         0.3159156933E+01      0.1158334542E+02
          0                 2           2             3    3     2      -0.8730033937E-02       3    3    2        -0.2437720868E+00      0.7437463984E+00
          0                 3           1             3    3     2       0.4944722225E-03       3    3    2         0.1461833717E-01      0.3089237820E-01

    ------------------------------------------------
       NWT REQUIRED            3 OUTER ITERATIONS 
       AND A TOTAL OF          5 INNER ITERATIONS.
    ------------------------------------------------

 NO OUTPUT CONTROL FOR STRESS PERIOD    8   TIME STEP    7
 ..........LAKE  1 IS DRY..........
 
 SOLVING FOR HEAD 
                                                   Max.-Head-Change                         Max.-Flux-Residual
  Residual-Control   Outer-Iter.   Inner-Iter.     Column Row Layer    Maximum-Head-Change  Column Row Layer    Maximum-Flux-Residual          L2-NORM 
          0                 1           2             3    2     2       0.1159086046E+00       3    2    2         0.3079367939E+01      0.1089212483E+02
          0                 2           2             3    3     2      -0.8623080740E-02       3    3    2        -0.2408237341E+00      0.7052055570E+00
          0                 3           1             3    3     2       0.4881002564E-03       3    3    2         0.1442757736E-01      0.2900052904E-01

    ------------------------------------------------
       NWT REQUIRED            3 OUTER ITERATIONS 
       AND A TOTAL OF          5 INNER ITERATIONS.
    ------------------------------------------------

 NO OUTPUT CONTROL FOR STRESS PERIOD    8   TIME STEP    8
 ..........LAKE  1 IS DRY..........
 
 SOLVING FOR HEAD 
                                                   Max.-Head-Change                         Max.-Flux-Residual
  Residual-Control   Outer-Iter.   Inner-Iter.     Column Row Layer    Maximum-Head-Change  Column Row Layer    Maximum-Flux-Residual          L2-NORM 
          0                 1           2             3    2     2       0.1130224314E+00       3    2    2         0.3000885270E+01      0.1049027381E+02
          0                 2           2             3    3     2      -0.8507127965E-02       3    3    2        -0.2376497543E+00      0.6829346009E+00
          0                 3           1             3    3     2       0.4811564257E-03       3    3    2         0.1422462813E-01      0.2798765745E-01

    ------------------------------------------------
       NWT REQUIRED            3 OUTER ITERATIONS 
       AND A TOTAL OF          5 INNER ITERATIONS.
    ------------------------------------------------

 NO OUTPUT CONTROL FOR STRESS PERIOD    8   TIME STEP    9
 ..........LAKE  1 IS DRY..........
 
 SOLVING FOR HEAD 
                                                   Max.-Head-Change                         Max.-Flux-Residual
  Residual-Control   Outer-Iter.   Inner-Iter.     Column Row Layer    Maximum-Head-Change  Column Row Layer    Maximum-Flux-Residual          L2-NORM 
          0                 1           2             3    2     2       0.1106277791E+00       3    2    2         0.2929884285E+01      0.1028340886E+02
          0                 2           2             3    3     2      -0.9004343820E-02       3    3    2        -0.2518209797E+00      0.6790838232E+00
          0                 3           1             3    3     2       0.5086428815E-03       3    3    2         0.1503154972E-01      0.2838912258E-01

    ------------------------------------------------
       NWT REQUIRED            3 OUTER ITERATIONS 
       AND A TOTAL OF          5 INNER ITERATIONS.
    ------------------------------------------------

 OUTPUT CONTROL FOR STRESS PERIOD    8   TIME STEP   10
    PRINT BUDGET
    SAVE BUDGET

  HEAD DEP BOUNDS   PERIOD    8   STEP    10
 BOUNDARY      1   LAYER   2   ROW    13   COL     1   RATE   -0.322683    
 BOUNDARY      2   LAYER   2   ROW    14   COL     9   RATE    0.214466    



 STREAM LISTING     PERIOD      8   STEP       10

 LAYER ROW COL. STREAM  RCH.  FLOW INTO     FLOW TO   FLOW OUT OF   OVRLND.     DIRECT     STREAM       STREAM     STREAM     STREAM   STREAMBED  STREAMBED
                SEG.NO.  NO.  STRM. RCH.    AQUIFER    STRM. RCH.    RUNOFF     PRECIP       ET          HEAD       DEPTH      WIDTH   CONDCTNC.   GRADIENT

   2    1    1     1     1    2.8645E+02  2.6015E+00   2.8385E+02  0.000E+00  0.000E+00  0.000E+00  1.09571E+03  2.660E+00  3.263E+01  1.468E+00  5.907E-01
   2    2    2     1     2    2.8385E+02  7.7857E+00   2.7606E+02  0.000E+00  0.000E+00  0.000E+00  1.09070E+03  2.641E+00  3.240E+01  2.268E+00  1.144E+00
   2    3    3     1     3    2.7606E+02  1.0766E+01   2.6529E+02  0.000E+00  0.000E+00  0.000E+00  1.08503E+03  2.609E+00  3.199E+01  1.920E+00  1.870E+00
   2    3    4     1     4    2.6529E+02  9.7495E+00   2.5554E+02  0.000E+00  0.000E+00  0.000E+00  1.07998E+03  2.571E+00  3.153E+01  1.750E+00  1.857E+00
   2    4    5     2     1    2.4554E+02  0.0000E+00   2.4554E+02  0.000E+00  0.000E+00  0.000E+00  1.07665E+03  4.721E+00  1.200E+01  7.800E-01  2.574E+00
   2    5    6     2     2    2.4554E+02  4.5951E+00   2.4095E+02  0.000E+00  0.000E+00  0.000E+00  1.07117E+03  4.658E+00  1.200E+01  6.000E-01  2.553E+00
   2    6    6     2     3    2.4095E+02  4.5626E+00   2.3639E+02  0.000E+00  0.000E+00  0.000E+00  1.06640E+03  4.604E+00  1.200E+01  6.000E-01  2.535E+00
   2    7    6     2     4    2.3639E+02  4.5301E+00   2.3186E+02  0.000E+00  0.000E+00  0.000E+00  1.06163E+03  4.550E+00  1.200E+01  6.000E-01  2.517E+00
   2    8    6     2     5    2.3186E+02  4.4975E+00   2.2736E+02  0.000E+00  0.000E+00  0.000E+00  1.05685E+03  4.496E+00  1.200E+01  6.000E-01  2.499E+00
   2    3    5     3     1    1.0000E+01  2.8252E+00   7.1748E+00  0.000E+00  0.000E+00  0.000E+00  1.07555E+03  1.909E+00  9.636E+00  7.227E-01  1.955E+00
   2    3    6     3     2    7.1748E+00  2.4905E+00   4.6843E+00  0.000E+00  0.000E+00  0.000E+00  1.07264E+03  1.727E+00  8.909E+00  6.682E-01  1.864E+00
   2    3    7     3     3    4.6843E+00  1.9718E+00   2.7125E+00  0.000E+00  0.000E+00  0.000E+00  1.06987E+03  1.555E+00  8.218E+00  5.547E-01  1.777E+00
   2    4    8     3     4    2.7125E+00  2.2567E+00   4.5579E-01  0.000E+00  0.000E+00  0.000E+00  1.06682E+03  1.364E+00  7.455E+00  6.709E-01  1.682E+00
   2    5    8     3     5    4.5579E-01  4.5579E-01   0.0000E+00  0.000E+00  0.000E+00  0.000E+00  1.06362E+03  0.000E+00  6.655E+00  4.991E-01  1.582E+00
   2    6    8     3     6    0.0000E+00  0.0000E+00   0.0000E+00  0.000E+00  0.000E+00  0.000E+00  1.06055E+03  0.000E+00  6.145E+00  1.844E-01  1.000E+00
   2    5   10     4     1    1.0000E+01  9.0525E-01   9.0947E+00  0.000E+00  0.000E+00  0.000E+00  1.07835E+03  6.210E-01  1.000E+01  2.500E-01  1.207E+00
   2    5    9     4     2    9.0947E+00  1.7835E+00   7.3113E+00  0.000E+00  0.000E+00  0.000E+00  1.07148E+03  5.670E-01  1.000E+01  5.000E-01  1.189E+00
   2    6    8     4     3    7.3113E+00  1.2257E+00   6.0855E+00  0.000E+00  0.000E+00  0.000E+00  1.06368E+03  5.021E-01  1.000E+01  3.500E-01  1.167E+00
   2    6    8     5     1    6.0855E+00  1.4716E+00   4.6139E+00  0.000E+00  0.000E+00  0.000E+00  1.05854E+03  5.396E-01  1.039E+01  4.158E-01  1.180E+00
   2    7    7     5     2    4.6139E+00  1.4897E+00   3.1242E+00  0.000E+00  0.000E+00  0.000E+00  1.05398E+03  4.817E-01  8.557E+00  4.279E-01  1.161E+00
   2    8    7     5     3    3.1242E+00  8.2855E-01   2.2957E+00  0.000E+00  0.000E+00  0.000E+00  1.04968E+03  4.253E-01  6.911E+00  2.419E-01  1.142E+00
   2    8    6     5     4    2.2957E+00  4.9455E-01   1.8011E+00  0.000E+00  0.000E+00  0.000E+00  1.04664E+03  3.856E-01  5.843E+00  1.461E-01  1.129E+00
   2    9    6     6     1    2.2916E+02  4.5078E+00   2.2465E+02  0.000E+00  0.000E+00  0.000E+00  1.04724E+03  4.513E+00  1.200E+01  6.000E-01  2.504E+00
   2   10    7     6     2    2.2465E+02  4.4747E+00   2.2018E+02  0.000E+00  0.000E+00  0.000E+00  1.04264E+03  4.458E+00  1.200E+01  6.000E-01  2.486E+00
   2   11    7     6     3    2.2018E+02  3.5390E+00   2.1664E+02  0.000E+00  0.000E+00  0.000E+00  1.03804E+03  4.408E+00  1.200E+01  6.000E-01  1.966E+00
   2   12    7     6     4    2.1664E+02  2.1799E+00   2.1446E+02  0.000E+00  0.000E+00  0.000E+00  1.03346E+03  4.372E+00  1.200E+01  6.000E-01  1.211E+00
   2   13    7     6     5    2.1446E+02  1.6532E-01   2.1429E+02  0.000E+00  0.000E+00  0.000E+00  1.03027E+03  4.358E+00  1.200E+01  2.400E-01  2.296E-01
   2   14    9     7     1    1.5000E+02  2.8417E+00   1.4716E+02  0.000E+00  0.000E+00  0.000E+00  1.03986E+03  2.284E+00  5.528E+01  5.591E+00  1.694E-01
   2   13    8     7     2    1.4716E+02  3.5289E+00   1.4363E+02  0.000E+00  0.000E+00  0.000E+00  1.03477E+03  2.267E+00  5.520E+01  6.141E+00  1.916E-01
   2   13    7     7     3    1.4363E+02  5.4208E-01   1.4309E+02  0.000E+00  0.000E+00  0.000E+00  1.02968E+03  2.256E+00  5.515E+01  5.577E+00  3.240E-02
   2   13    6     8     1    3.5738E+02  1.4517E+00   3.5677E+02  8.356E-01  0.000E+00  0.000E+00  1.02575E+03  3.875E+00  5.618E+01  5.725E+00  8.452E-02
   2   13    5     8     2    3.5677E+02 -1.4641E+00   3.5907E+02  8.356E-01  0.000E+00  0.000E+00  1.01950E+03  3.878E+00  5.623E+01  5.730E+00 -8.516E-02
   2   13    4     8     3    3.5907E+02 -3.6416E+00   3.6354E+02  8.356E-01  0.000E+00  0.000E+00  1.01327E+03  3.892E+00  5.644E+01  5.751E+00 -2.111E-01
   2   13    3     8     4    3.6354E+02 -4.5695E+00   3.6895E+02  8.356E-01  0.000E+00  0.000E+00  1.00704E+03  3.912E+00  5.673E+01  5.781E+00 -2.635E-01
   2   13    2     8     5    3.6895E+02 -3.5753E+00   3.7336E+02  8.356E-01  0.000E+00  0.000E+00  1.00081E+03  3.932E+00  5.702E+01  5.810E+00 -2.051E-01
   2   13    1     8     6    3.7336E+02 -2.3435E+00   3.7620E+02  5.014E-01  0.000E+00  0.000E+00  9.95822E+02  3.947E+00  5.723E+01  3.499E+00 -2.232E-01
   2    4    5     9     1    0.0000E+00  0.0000E+00   0.0000E+00  0.000E+00  0.000E+00  0.000E+00  1.06000E+03  1.898E-04  2.000E+01  2.000E-03 -2.928E-01
   2    4    5    10     1    0.0000E+00  0.0000E+00   0.0000E+00  0.000E+00  0.000E+00  0.000E+00  1.08000E+03  0.000E+00  2.000E+01  2.000E-03  1.000E+00



 ..........LAKE  1 IS DRY..........

     SECTIONS OF THE LAKE BOTTOM HAVE BECOME DRY.  THE DRYSECTIONS
     LIE ABOVE THE FOLLOWING  1 AQUIFER CELLS (LAYER,ROW,COLUMN):
     (  2,  4,  5)  (

 PERIOD     8     TIME STEP    10     TIME STEP LENGTH  1.7520E+05
 PERIOD TIME  1.7520E+06     TOTAL SIMULATION TIME  2.0148E+07


                 HYDROLOGIC BUDGET SUMMARIES FOR SIMULATED LAKES
     (ALL FLUID FLUXES ARE VOLUMES ADDED TO THE LAKE DURING PRESENT TIME STEP)
     ----------------------------------------------------------------------------------------
 LAKE    STAGE         VOLUME     VOL. CHANGE      PRECIP     EVAPORATION    SPECIFIED RUNOFF     COMPUTED RUNOFF    TOTAL RUNOFF
   1  1.074500E+03  0.000000E+00  0.000000E+00  0.000000E+00  0.000000E+00   0.000000E+00          0.000000E+00      0.000000E+00

            GROUND WATER            SURFACE WATER        WATER          UZF INFIL.
 LAKE    INFLOW     OUTFLOW      INFLOW     OUTFLOW       USE        FROM LAKE
   1  0.0000E+00  0.0000E+00  0.0000E+00  0.0000E+00  0.0000E+00       0.0000E+00

      CONNECTED LAKE   TIME-STEP         STAGE-CHANGE          PERCENT
 LAKE    INFLUX      SURFACE AREA   TIME STEP  CUMULATIVE    DISCREPANCY
   1   0.0000E+00     0.0000E+00  -1.3306E-03  7.4458E-04       0.000
 --------------------------------------------------------------------------------



            CUMULATIVE HYDROLOGIC BUDGET SUMMARIES FOR SIMULATED LAKES
     (ALL FLUID FLUXES ARE SUMS OF VOLUMES ADDED TO THE LAKE SINCE INITIAL TIME)
     ---------------------------------------------------------------------------
 LAKE       PRECIP       EVAP     SPECIFIED RUNOFF   COMPUTED RUNOFF   TOTAL RUNOFF
   1     0.0000E+00  1.6028E+06       0.0000E+00       0.0000E+00       0.0000E+00

            GROUND WATER            SURFACE WATER       UZF INFIL.
 LAKE    INFLOW     OUTFLOW      INFLOW     OUTFLOW     FROM LAKE
   1  0.0000E+00  0.0000E+00  1.9325E+08  4.8784E+07    1.4286E+08

         WATER    CONNECTED LAKE   CHANGE       PERCENT
 LAKE     USE         INFLUX       IN VOL.    DISCREPANCY
   1   0.0000E+00   0.0000E+00   0.0000E+00     -0.000
 --------------------------------------------------------------------------------

 UBDSV3 SAVING "           GW ET" ON UNIT  61 AT TIME STEP    10, STRESS PERIOD   8
 UBDSV3 SAVING "    UZF RECHARGE" ON UNIT  61 AT TIME STEP    10, STRESS PERIOD   8
 UBDSV3 SAVING " SURFACE LEAKAGE" ON UNIT  61 AT TIME STEP    10, STRESS PERIOD   8
 UBDSV3 SAVING "       HORT+DUNN" ON UNIT  61 AT TIME STEP    10, STRESS PERIOD   8
 UBDSV3 SAVING "  STORAGE CHANGE" ON UNIT  61 AT TIME STEP    10, STRESS PERIOD   8


UNSATURATED ZONE PACKAGE VOLUMETRIC BUDGET FOR  TIME STEP    10 STRESS PERIOD    8
  ------------------------------------------------------------------------------



     CUMULATIVE VOLUMES      L**3       RATES FOR THIS TIME STEP      L**3/T
     ------------------                 ------------------------

           IN:                                      IN:
           ---                                      ---
        INFILTRATION =  1460139902.0326          INFILTRATION =          42.0033

          OUT:                                     OUT:
          ----                                     ----
              UZF ET =  1318632319.1311                UZF ET =          32.4248
        UZF RECHARGE =   667892683.4809          UZF RECHARGE =          10.6503

            IN - OUT =  -526385100.5795              IN - OUT =          -1.0717

          STORAGE:                                 STORAGE:
          --------                                 --------
      STORAGE CHANGE =  -526417711.9682        STORAGE CHANGE =          -1.0674

 PERCENT DISCREPANCY IS DIFFERENCE BETWEEN IN-OUT MINUS CHANGE IN STORAGE
 DIVIDED BY THE AVERAGE OF IN AND OUT TIMES 100

 PERCENT DISCREPANCY =           0.00     PERCENT DISCREPANCY =          -0.01






1
  VOLUMETRIC BUDGET FOR ENTIRE MODEL AT END OF TIME STEP   10, STRESS PERIOD   8
  ------------------------------------------------------------------------------

     CUMULATIVE VOLUMES      L**3       RATES FOR THIS TIME STEP      L**3/T
     ------------------                 ------------------------

           IN:                                      IN:
           ---                                      ---
             STORAGE =   155749568.0000               STORAGE =           3.1086
       CONSTANT HEAD =           0.0000         CONSTANT HEAD =           0.0000
               WELLS =           0.0000                 WELLS =           0.0000
     HEAD DEP BOUNDS =     4321047.0000       HEAD DEP BOUNDS =           0.2145
      STREAM LEAKAGE =  1539852800.0000        STREAM LEAKAGE =          90.5176
       LAKE  SEEPAGE =           0.0000         LAKE  SEEPAGE =           0.0000
        UZF RECHARGE =   667892608.0000          UZF RECHARGE =          10.6503
               GW ET =           0.0000                 GW ET =           0.0000
     SURFACE LEAKAGE =           0.0000       SURFACE LEAKAGE =           0.0000

            TOTAL IN =  2367816192.0000              TOTAL IN =         104.4910

          OUT:                                     OUT:
          ----                                     ----
             STORAGE =  1414413568.0000               STORAGE =          71.9467
       CONSTANT HEAD =           0.0000         CONSTANT HEAD =           0.0000
               WELLS =   289080000.0000                 WELLS =           0.0000
     HEAD DEP BOUNDS =     6103255.0000       HEAD DEP BOUNDS =           0.3227
      STREAM LEAKAGE =   355174688.0000        STREAM LEAKAGE =          15.5941
       LAKE  SEEPAGE =           0.0000         LAKE  SEEPAGE =           0.0000
        UZF RECHARGE =           0.0000          UZF RECHARGE =           0.0000
               GW ET =   278555648.0000                 GW ET =          18.2591
     SURFACE LEAKAGE =    77739728.0000       SURFACE LEAKAGE =           4.4320

           TOTAL OUT =  2421067008.0000             TOTAL OUT =         110.5545

            IN - OUT =   -53250816.0000              IN - OUT =          -6.0636

 PERCENT DISCREPANCY =          -2.22     PERCENT DISCREPANCY =          -5.64






         TIME SUMMARY AT END OF TIME STEP   10 IN STRESS PERIOD    8
                    SECONDS     MINUTES      HOURS       DAYS        YEARS
                    -----------------------------------------------------------
   TIME STEP LENGTH 1.75200E+05  2920.0      48.667      2.0278     5.55175E-03
 STRESS PERIOD TIME 1.75200E+06  29200.      486.67      20.278     5.55175E-02
         TOTAL TIME 2.01480E+07 3.35800E+05  5596.7      233.19     0.63845    
1
 
 SOLVING FOR HEAD 
                                                   Max.-Head-Change                         Max.-Flux-Residual
  Residual-Control   Outer-Iter.   Inner-Iter.     Column Row Layer    Maximum-Head-Change  Column Row Layer    Maximum-Flux-Residual          L2-NORM 
          0                 1           2             3    2     2       0.1083706355E+00       3    2    2         0.2867819200E+01      0.1012686726E+02
          0                 2           2             3    3     2      -0.8986439484E-02       3    3    2        -0.2513994564E+00      0.6732196453E+00
          0                 3           1             3    3     2       0.5072679203E-03       3    3    2         0.1499128603E-01      0.2836535909E-01

    ------------------------------------------------
       NWT REQUIRED            3 OUTER ITERATIONS 
       AND A TOTAL OF          5 INNER ITERATIONS.
    ------------------------------------------------

 NO OUTPUT CONTROL FOR STRESS PERIOD    8   TIME STEP   11
 ..........LAKE  1 IS DRY..........
 
 SOLVING FOR HEAD 
                                                   Max.-Head-Change                         Max.-Flux-Residual
  Residual-Control   Outer-Iter.   Inner-Iter.     Column Row Layer    Maximum-Head-Change  Column Row Layer    Maximum-Flux-Residual          L2-NORM 
          0                 1           2             3    2     2       0.1062032203E+00       3    2    2         0.2809309934E+01      0.9989843589E+01
          0                 2           2             3    3     2      -0.8864754847E-02       3    3    2        -0.2479858382E+00      0.6672795788E+00
          0                 3           1             3    3     2       0.5002806135E-03       3    3    2         0.1478007216E-01      0.2826071901E-01

    ------------------------------------------------
       NWT REQUIRED            3 OUTER ITERATIONS 
       AND A TOTAL OF          5 INNER ITERATIONS.
    ------------------------------------------------

 NO OUTPUT CONTROL FOR STRESS PERIOD    8   TIME STEP   12
 ..........LAKE  1 IS DRY..........
 
 SOLVING FOR HEAD 
                                                   Max.-Head-Change                         Max.-Flux-Residual
  Residual-Control   Outer-Iter.   Inner-Iter.     Column Row Layer    Maximum-Head-Change  Column Row Layer    Maximum-Flux-Residual          L2-NORM 
          0                 1           2             3    2     2       0.1030160647E+00       3    2    2         0.2748798307E+01      0.9608651032E+01
          0                 2           2             3    3     2      -0.6123214338E-02       3    3    2        -0.1700983311E+00      0.6202619042E+00
          0                 3           1             3    3     2       0.3463779718E-03       3    3    2         0.1023899350E-01      0.2444793120E-01

    ------------------------------------------------
       NWT REQUIRED            3 OUTER ITERATIONS 
       AND A TOTAL OF          5 INNER ITERATIONS.
    ------------------------------------------------

 NO OUTPUT CONTROL FOR STRESS PERIOD    8   TIME STEP   13
 ..........LAKE  1 IS DRY..........
 
 SOLVING FOR HEAD 
                                                   Max.-Head-Change                         Max.-Flux-Residual
  Residual-Control   Outer-Iter.   Inner-Iter.     Column Row Layer    Maximum-Head-Change  Column Row Layer    Maximum-Flux-Residual          L2-NORM 
          0                 1           2             3    2     2       0.9879797003E-01       3    2    2         0.2670624632E+01      0.9581356225E+01
          0                 2           2             3    2     2      -0.5070202050E-02       3    2    2        -0.1425607913E+00      0.6113676114E+00
          0                 3           1             6   10     2       0.2467681975E-03       5    4    2        -0.7925819727E-02      0.2422133983E-01

    ------------------------------------------------
       NWT REQUIRED            3 OUTER ITERATIONS 
       AND A TOTAL OF          5 INNER ITERATIONS.
    ------------------------------------------------

 NO OUTPUT CONTROL FOR STRESS PERIOD    8   TIME STEP   14
 ..........LAKE  1 IS DRY..........
 
 SOLVING FOR HEAD 
                                                   Max.-Head-Change                         Max.-Flux-Residual
  Residual-Control   Outer-Iter.   Inner-Iter.     Column Row Layer    Maximum-Head-Change  Column Row Layer    Maximum-Flux-Residual          L2-NORM 
          0                 1           2             3    2     2       0.9489562760E-01       3    2    2         0.2561226226E+01      0.9137443971E+01
          0                 2           2             5   10     2      -0.4880761558E-02       5   10    2        -0.1387602382E+00      0.5878358851E+00
          0                 3           1             5    4     2      -0.2446114126E-03       5    4    2        -0.7907544815E-02      0.2313603127E-01

    ------------------------------------------------
       NWT REQUIRED            3 OUTER ITERATIONS 
       AND A TOTAL OF          5 INNER ITERATIONS.
    ------------------------------------------------

 OUTPUT CONTROL FOR STRESS PERIOD    8   TIME STEP   15
    PRINT BUDGET
    PRINT HEAD FOR ALL LAYERS
    SAVE HEAD FOR ALL LAYERS
    SAVE BUDGET

  HEAD DEP BOUNDS   PERIOD    8   STEP    15
 BOUNDARY      1   LAYER   2   ROW    13   COL     1   RATE   -0.319188    
 BOUNDARY      2   LAYER   2   ROW    14   COL     9   RATE    0.214650    



 STREAM LISTING     PERIOD      8   STEP       15

 LAYER ROW COL. STREAM  RCH.  FLOW INTO     FLOW TO   FLOW OUT OF   OVRLND.     DIRECT     STREAM       STREAM     STREAM     STREAM   STREAMBED  STREAMBED
                SEG.NO.  NO.  STRM. RCH.    AQUIFER    STRM. RCH.    RUNOFF     PRECIP       ET          HEAD       DEPTH      WIDTH   CONDCTNC.   GRADIENT

   2    1    1     1     1    2.0400E+02  1.9323E+00   2.0207E+02  0.000E+00  0.000E+00  0.000E+00  1.09539E+03  2.344E+00  2.871E+01  1.292E+00  4.985E-01
   2    2    2     1     2    2.0207E+02  6.2652E+00   1.9580E+02  0.000E+00  0.000E+00  0.000E+00  1.09038E+03  2.326E+00  2.849E+01  1.995E+00  1.047E+00
   2    3    3     1     3    1.9580E+02  8.9165E+00   1.8689E+02  0.000E+00  0.000E+00  0.000E+00  1.08471E+03  2.292E+00  2.808E+01  1.685E+00  1.764E+00
   2    3    4     1     4    1.8689E+02  8.0495E+00   1.7884E+02  0.000E+00  0.000E+00  0.000E+00  1.07966E+03  2.254E+00  2.761E+01  1.532E+00  1.751E+00
   2    4    5     2     1    1.6884E+02  0.0000E+00   1.6884E+02  0.000E+00  0.000E+00  0.000E+00  1.07570E+03  3.763E+00  1.200E+01  7.800E-01  2.254E+00
   2    5    6     2     2    1.6884E+02  4.0196E+00   1.6482E+02  0.000E+00  0.000E+00  0.000E+00  1.07021E+03  3.699E+00  1.200E+01  6.000E-01  2.233E+00
   2    6    6     2     3    1.6482E+02  3.9865E+00   1.6083E+02  0.000E+00  0.000E+00  0.000E+00  1.06544E+03  3.644E+00  1.200E+01  6.000E-01  2.215E+00
   2    7    6     2     4    1.6083E+02  3.9533E+00   1.5688E+02  0.000E+00  0.000E+00  0.000E+00  1.06066E+03  3.589E+00  1.200E+01  6.000E-01  2.196E+00
   2    8    6     2     5    1.5688E+02  3.9200E+00   1.5296E+02  0.000E+00  0.000E+00  0.000E+00  1.05589E+03  3.533E+00  1.200E+01  6.000E-01  2.178E+00
   2    3    5     3     1    1.0000E+01  2.8252E+00   7.1748E+00  0.000E+00  0.000E+00  0.000E+00  1.07555E+03  1.909E+00  9.636E+00  7.227E-01  1.955E+00
   2    3    6     3     2    7.1748E+00  2.4905E+00   4.6843E+00  0.000E+00  0.000E+00  0.000E+00  1.07264E+03  1.727E+00  8.909E+00  6.682E-01  1.864E+00
   2    3    7     3     3    4.6843E+00  1.9718E+00   2.7125E+00  0.000E+00  0.000E+00  0.000E+00  1.06987E+03  1.555E+00  8.218E+00  5.547E-01  1.777E+00
   2    4    8     3     4    2.7125E+00  2.2567E+00   4.5579E-01  0.000E+00  0.000E+00  0.000E+00  1.06682E+03  1.364E+00  7.455E+00  6.709E-01  1.682E+00
   2    5    8     3     5    4.5579E-01  4.5579E-01   0.0000E+00  0.000E+00  0.000E+00  0.000E+00  1.06362E+03  0.000E+00  6.655E+00  4.991E-01  1.582E+00
   2    6    8     3     6    0.0000E+00  0.0000E+00   0.0000E+00  0.000E+00  0.000E+00  0.000E+00  1.06055E+03  0.000E+00  6.145E+00  1.844E-01  1.000E+00
   2    5   10     4     1    1.0000E+01  9.0525E-01   9.0947E+00  0.000E+00  0.000E+00  0.000E+00  1.07835E+03  6.210E-01  1.000E+01  2.500E-01  1.207E+00
   2    5    9     4     2    9.0947E+00  1.7835E+00   7.3113E+00  0.000E+00  0.000E+00  0.000E+00  1.07148E+03  5.670E-01  1.000E+01  5.000E-01  1.189E+00
   2    6    8     4     3    7.3113E+00  1.2257E+00   6.0855E+00  0.000E+00  0.000E+00  0.000E+00  1.06368E+03  5.021E-01  1.000E+01  3.500E-01  1.167E+00
   2    6    8     5     1    6.0855E+00  1.4716E+00   4.6139E+00  0.000E+00  0.000E+00  0.000E+00  1.05854E+03  5.396E-01  1.039E+01  4.158E-01  1.180E+00
   2    7    7     5     2    4.6139E+00  1.4897E+00   3.1242E+00  0.000E+00  0.000E+00  0.000E+00  1.05398E+03  4.817E-01  8.557E+00  4.279E-01  1.161E+00
   2    8    7     5     3    3.1242E+00  8.2855E-01   2.2957E+00  0.000E+00  0.000E+00  0.000E+00  1.04968E+03  4.253E-01  6.911E+00  2.419E-01  1.142E+00
   2    8    6     5     4    2.2957E+00  4.9455E-01   1.8011E+00  0.000E+00  0.000E+00  0.000E+00  1.04664E+03  3.856E-01  5.843E+00  1.461E-01  1.129E+00
   2    9    6     6     1    1.5476E+02  3.9254E+00   1.5083E+02  0.000E+00  0.000E+00  0.000E+00  1.04627E+03  3.542E+00  1.200E+01  6.000E-01  2.181E+00
   2   10    7     6     2    1.5083E+02  3.8914E+00   1.4694E+02  0.000E+00  0.000E+00  0.000E+00  1.04167E+03  3.486E+00  1.200E+01  6.000E-01  2.162E+00
   2   11    7     6     3    1.4694E+02  2.9246E+00   1.4402E+02  0.000E+00  0.000E+00  0.000E+00  1.03707E+03  3.436E+00  1.200E+01  6.000E-01  1.625E+00
   2   12    7     6     4    1.4402E+02  1.5996E+00   1.4242E+02  0.000E+00  0.000E+00  0.000E+00  1.03249E+03  3.402E+00  1.200E+01  6.000E-01  8.887E-01
   2   13    7     6     5    1.4242E+02 -6.3111E-02   1.4248E+02  0.000E+00  0.000E+00  0.000E+00  1.02930E+03  3.391E+00  1.200E+01  2.400E-01 -8.765E-02
   2   14    9     7     1    1.5000E+02  2.8682E+00   1.4713E+02  0.000E+00  0.000E+00  0.000E+00  1.03986E+03  2.284E+00  5.528E+01  5.591E+00  1.710E-01
   2   13    8     7     2    1.4713E+02  3.5428E+00   1.4359E+02  0.000E+00  0.000E+00  0.000E+00  1.03477E+03  2.267E+00  5.520E+01  6.141E+00  1.923E-01
   2   13    7     7     3    1.4359E+02  6.2230E-01   1.4297E+02  0.000E+00  0.000E+00  0.000E+00  1.02967E+03  2.255E+00  5.515E+01  5.577E+00  3.719E-02
   2   13    6     8     1    2.8545E+02  4.4333E-01   2.8554E+02  5.404E-01  0.000E+00  0.000E+00  1.02544E+03  3.561E+00  5.163E+01  5.261E+00  2.809E-02
   2   13    5     8     2    2.8554E+02 -2.4934E+00   2.8858E+02  5.404E-01  0.000E+00  0.000E+00  1.01919E+03  3.568E+00  5.174E+01  5.272E+00 -1.576E-01
   2   13    4     8     3    2.8858E+02 -4.6505E+00   2.9377E+02  5.404E-01  0.000E+00  0.000E+00  1.01296E+03  3.588E+00  5.202E+01  5.301E+00 -2.924E-01
   2   13    3     8     4    2.9377E+02 -5.4627E+00   2.9977E+02  5.404E-01  0.000E+00  0.000E+00  1.00674E+03  3.614E+00  5.240E+01  5.340E+00 -3.410E-01
   2   13    2     8     5    2.9977E+02 -4.1479E+00   3.0446E+02  5.404E-01  0.000E+00  0.000E+00  1.00051E+03  3.639E+00  5.276E+01  5.376E+00 -2.572E-01
   2   13    1     8     6    3.0446E+02 -2.8146E+00   3.0760E+02  3.243E-01  0.000E+00  0.000E+00  9.95531E+02  3.656E+00  5.302E+01  3.242E+00 -2.894E-01
   2    4    5     9     1    0.0000E+00  0.0000E+00   0.0000E+00  0.000E+00  0.000E+00  0.000E+00  1.06000E+03  1.792E-04  2.000E+01  2.000E-03 -2.658E-01
   2    4    5    10     1    0.0000E+00  0.0000E+00   0.0000E+00  0.000E+00  0.000E+00  0.000E+00  1.08000E+03  0.000E+00  2.000E+01  2.000E-03  1.000E+00



 ..........LAKE  1 IS DRY..........

     SECTIONS OF THE LAKE BOTTOM HAVE BECOME DRY.  THE DRYSECTIONS
     LIE ABOVE THE FOLLOWING  1 AQUIFER CELLS (LAYER,ROW,COLUMN):
     (  2,  4,  5)  (

 PERIOD     8     TIME STEP    15     TIME STEP LENGTH  1.7520E+05
 PERIOD TIME  2.6280E+06     TOTAL SIMULATION TIME  2.1024E+07


                 HYDROLOGIC BUDGET SUMMARIES FOR SIMULATED LAKES
     (ALL FLUID FLUXES ARE VOLUMES ADDED TO THE LAKE DURING PRESENT TIME STEP)
     ----------------------------------------------------------------------------------------
 LAKE    STAGE         VOLUME     VOL. CHANGE      PRECIP     EVAPORATION    SPECIFIED RUNOFF     COMPUTED RUNOFF    TOTAL RUNOFF
   1  1.074500E+03  0.000000E+00  0.000000E+00  0.000000E+00  0.000000E+00   0.000000E+00          0.000000E+00      0.000000E+00

            GROUND WATER            SURFACE WATER        WATER          UZF INFIL.
 LAKE    INFLOW     OUTFLOW      INFLOW     OUTFLOW       USE        FROM LAKE
   1  0.0000E+00  0.0000E+00  0.0000E+00  0.0000E+00  0.0000E+00       0.0000E+00

      CONNECTED LAKE   TIME-STEP         STAGE-CHANGE          PERCENT
 LAKE    INFLUX      SURFACE AREA   TIME STEP  CUMULATIVE    DISCREPANCY
   1   0.0000E+00     0.0000E+00  -1.3306E-03  7.4458E-04       0.000
 --------------------------------------------------------------------------------



            CUMULATIVE HYDROLOGIC BUDGET SUMMARIES FOR SIMULATED LAKES
     (ALL FLUID FLUXES ARE SUMS OF VOLUMES ADDED TO THE LAKE SINCE INITIAL TIME)
     ---------------------------------------------------------------------------
 LAKE       PRECIP       EVAP     SPECIFIED RUNOFF   COMPUTED RUNOFF   TOTAL RUNOFF
   1     0.0000E+00  1.6028E+06       0.0000E+00       0.0000E+00       0.0000E+00

            GROUND WATER            SURFACE WATER       UZF INFIL.
 LAKE    INFLOW     OUTFLOW      INFLOW     OUTFLOW     FROM LAKE
   1  0.0000E+00  0.0000E+00  1.9325E+08  4.8784E+07    1.4286E+08

         WATER    CONNECTED LAKE   CHANGE       PERCENT
 LAKE     USE         INFLUX       IN VOL.    DISCREPANCY
   1   0.0000E+00   0.0000E+00   0.0000E+00     -0.000
 --------------------------------------------------------------------------------

 UBDSV3 SAVING "           GW ET" ON UNIT  61 AT TIME STEP    15, STRESS PERIOD   8
 UBDSV3 SAVING "    UZF RECHARGE" ON UNIT  61 AT TIME STEP    15, STRESS PERIOD   8
 UBDSV3 SAVING " SURFACE LEAKAGE" ON UNIT  61 AT TIME STEP    15, STRESS PERIOD   8
 UBDSV3 SAVING "       HORT+DUNN" ON UNIT  61 AT TIME STEP    15, STRESS PERIOD   8
 UBDSV3 SAVING "  STORAGE CHANGE" ON UNIT  61 AT TIME STEP    15, STRESS PERIOD   8


UNSATURATED ZONE PACKAGE VOLUMETRIC BUDGET FOR  TIME STEP    15 STRESS PERIOD    8
  ------------------------------------------------------------------------------



     CUMULATIVE VOLUMES      L**3       RATES FOR THIS TIME STEP      L**3/T
     ------------------                 ------------------------

           IN:                                      IN:
           ---                                      ---
        INFILTRATION =  1496956337.4556          INFILTRATION =          42.0581

          OUT:                                     OUT:
          ----                                     ----
              UZF ET =  1347755705.2871                UZF ET =          33.6155
        UZF RECHARGE =   676789699.0356          UZF RECHARGE =           9.7254

            IN - OUT =  -527589066.8671              IN - OUT =          -1.2828

          STORAGE:                                 STORAGE:
          --------                                 --------
      STORAGE CHANGE =  -527618196.6220        STORAGE CHANGE =          -1.2773

 PERCENT DISCREPANCY IS DIFFERENCE BETWEEN IN-OUT MINUS CHANGE IN STORAGE
 DIVIDED BY THE AVERAGE OF IN AND OUT TIMES 100

 PERCENT DISCREPANCY =           0.00     PERCENT DISCREPANCY =          -0.01






1
              HEAD IN LAYER   1 AT END OF TIME STEP    15 IN STRESS PERIOD    8
  -----------------------------------------------------------------------------

           1       2       3       4       5       6       7       8       9      10
 ...................................................................................
   1  6999.00 6999.00 6999.00 6999.00 6999.00 6999.00 6999.00 6999.00 6999.00 6999.00
   2  6999.00 6999.00 6999.00 6999.00 6999.00 6999.00 6999.00 6999.00 6999.00 6999.00
   3  6999.00 6999.00 6999.00 6999.00 6999.00 6999.00 6999.00 6999.00 6999.00 6999.00
   4  6999.00 6999.00 6999.00 6999.00 1074.50 6999.00 6999.00 6999.00 6999.00 6999.00
   5  6999.00 6999.00 6999.00 6999.00 6999.00 6999.00 6999.00 6999.00 6999.00 6999.00
   6  6999.00 6999.00 6999.00 6999.00 6999.00 6999.00 6999.00 6999.00 6999.00 6999.00
   7  6999.00 6999.00 6999.00 6999.00 6999.00 6999.00 6999.00 6999.00 6999.00 6999.00
   8  6999.00 6999.00 6999.00 6999.00 6999.00 6999.00 6999.00 6999.00 6999.00 6999.00
   9  6999.00 6999.00 6999.00 6999.00 6999.00 6999.00 6999.00 6999.00 6999.00 6999.00
  10  6999.00 6999.00 6999.00 6999.00 6999.00 6999.00 6999.00 6999.00 6999.00 6999.00
  11  6999.00 6999.00 6999.00 6999.00 6999.00 6999.00 6999.00 6999.00 6999.00 6999.00
  12  6999.00 6999.00 6999.00 6999.00 6999.00 6999.00 6999.00 6999.00 6999.00 6999.00
  13  6999.00 6999.00 6999.00 6999.00 6999.00 6999.00 6999.00 6999.00 6999.00 6999.00
  14  6999.00 6999.00 6999.00 6999.00 6999.00 6999.00 6999.00 6999.00 6999.00 6999.00
  15  6999.00 6999.00 6999.00 6999.00 6999.00 6999.00 6999.00 6999.00 6999.00 6999.00
1
              HEAD IN LAYER   2 AT END OF TIME STEP    15 IN STRESS PERIOD    8
  -----------------------------------------------------------------------------

           1       2       3       4       5       6       7       8       9      10
 ...................................................................................
   1  1093.90 1088.41 6999.00 6999.00 6999.00 6999.00 6999.00 6999.00 6999.00 6999.00
   2  1087.83 1087.24 1079.38 6999.00 6999.00 1067.73 1067.07 1065.19 6999.00 6999.00
   3  6999.00 1074.98 1075.68 1071.66 1068.91 1067.03 1065.67 1063.66 6999.00 6999.00
   4  1061.61 1063.32 1064.43 1062.14 1060.80 1058.68 1057.83 1059.94 1058.00 6999.00
   5  1057.69 1055.36 1054.70 1054.36 1054.29 1054.50 1052.66 1052.94 1055.62 1057.70
   6  1053.57 1049.87 1048.14 1048.23 1048.74 1050.37 1049.77 1050.70 1052.45 1057.13
   7  1050.65 1044.92 1042.78 1042.92 1043.88 1046.14 1046.40 1047.53 1049.09 6999.00
   8  6999.00 1039.34 1037.91 1038.18 1039.27 1041.78 1042.14 1043.71 1045.34 6999.00
   9  6999.00 1033.51 1032.81 1033.38 1034.59 1037.09 1037.69 1038.04 1040.82 6999.00
  10  6999.00 1027.50 1027.59 1028.79 1030.26 1032.52 1034.84 1034.58 1037.25 1040.43
  11  6999.00 1019.82 1020.99 1024.16 1026.43 1029.16 1032.20 1032.42 1035.13 6999.00
  12  1003.24 1009.92 1014.19 1018.81 1022.64 1026.49 1029.83 1031.46 1034.75 6999.00
  13   996.40 1001.29 1007.76 1013.84 1019.67 1025.35 1029.56 1034.19 1036.74 6999.00
  14  6999.00 1007.06 1010.96 1015.91 1021.05 1025.98 1030.35 1035.24 1039.35 6999.00
  15  6999.00 6999.00 1018.62 1021.40 1025.00 1028.00 6999.00 6999.00 6999.00 6999.00

 HEAD WILL BE SAVED ON UNIT   58 AT END OF TIME STEP   15, STRESS PERIOD    8
1
  VOLUMETRIC BUDGET FOR ENTIRE MODEL AT END OF TIME STEP   15, STRESS PERIOD   8
  ------------------------------------------------------------------------------

     CUMULATIVE VOLUMES      L**3       RATES FOR THIS TIME STEP      L**3/T
     ------------------                 ------------------------

           IN:                                      IN:
           ---                                      ---
             STORAGE =   160026768.0000               STORAGE =           7.1490
       CONSTANT HEAD =           0.0000         CONSTANT HEAD =           0.0000
               WELLS =           0.0000                 WELLS =           0.0000
     HEAD DEP BOUNDS =     4509031.5000       HEAD DEP BOUNDS =           0.2146
      STREAM LEAKAGE =  1614342784.0000        STREAM LEAKAGE =          79.0594
       LAKE  SEEPAGE =           0.0000         LAKE  SEEPAGE =           0.0000
        UZF RECHARGE =   676789568.0000          UZF RECHARGE =           9.7254
               GW ET =           0.0000                 GW ET =           0.0000
     SURFACE LEAKAGE =           0.0000       SURFACE LEAKAGE =           0.0000

            TOTAL IN =  2455668224.0000              TOTAL IN =          96.1483

          OUT:                                     OUT:
          ----                                     ----
             STORAGE =  1472407552.0000               STORAGE =          60.4306
       CONSTANT HEAD =           0.0000         CONSTANT HEAD =           0.0000
               WELLS =   289080000.0000                 WELLS =           0.0000
     HEAD DEP BOUNDS =     6384496.5000       HEAD DEP BOUNDS =           0.3192
      STREAM LEAKAGE =   370509216.0000        STREAM LEAKAGE =          19.6322
       LAKE  SEEPAGE =           0.0000         LAKE  SEEPAGE =           0.0000
        UZF RECHARGE =           0.0000          UZF RECHARGE =           0.0000
               GW ET =   294575872.0000                 GW ET =          18.2683
     SURFACE LEAKAGE =    80974192.0000       SURFACE LEAKAGE =           2.8330

           TOTAL OUT =  2513931264.0000             TOTAL OUT =         101.4833

            IN - OUT =   -58263040.0000              IN - OUT =          -5.3350

 PERCENT DISCREPANCY =          -2.34     PERCENT DISCREPANCY =          -5.40






         TIME SUMMARY AT END OF TIME STEP   15 IN STRESS PERIOD    8
                    SECONDS     MINUTES      HOURS       DAYS        YEARS
                    -----------------------------------------------------------
   TIME STEP LENGTH 1.75200E+05  2920.0      48.667      2.0278     5.55175E-03
 STRESS PERIOD TIME 2.62800E+06  43800.      730.00      30.417     8.32763E-02
         TOTAL TIME 2.10240E+07 3.50400E+05  5840.0      243.33     0.66621    
1
1
                            STRESS PERIOD NO.    9, LENGTH =   2628000.    
                            -----------------------------------------------

                              NUMBER OF TIME STEPS =    15

                               MULTIPLIER FOR DELT =     1.000

                            INITIAL TIME STEP SIZE =   175200.0    

 WELL NO.  LAYER   ROW   COL   STRESS RATE         
 --------------------------------------------------
      1      2      6      4      -1.000    
      2      2      6      5      -1.000    
      3      2      7      4      -1.000    
      4      2      7      5      -1.000    
      5      2      8      4      -1.000    
      6      2      8      5      -1.000    
      7      2      9      4      -1.000    
      8      2      9      5      -1.000    
      9      2     10      4      -1.000    
     10      2     10      5      -1.000    

     10 WELLS

 REUSING NON-PARAMETER GHB CELLS FROM LAST STRESS PERIOD

      2 GHB CELLS

 REUSING STREAM SEGMENT DATA FROM LAST STRESS PERIOD



            AREAL INFILTRATION RATE
 READING ON UNIT   19 WITH FORMAT: (10F4.0)            

            1           2           3           4           5           6           7           8           9          10
 ........................................................................................................................
   1   3.0000E-09  6.0000E-09   0.000       0.000       0.000       0.000       0.000       0.000       0.000       0.000    
   2   6.0000E-09  3.0000E-09  6.0000E-09   0.000       0.000      2.4000E-08  2.4000E-08  1.5000E-08   0.000       0.000    
   3    0.000      1.5000E-08  3.0000E-09  3.0000E-09  2.4000E-08  2.4000E-08  1.5000E-08  1.5000E-08   0.000       0.000    
   4   2.4000E-08  1.5000E-08  3.0000E-09  3.0000E-09  3.0000E-09  3.0000E-09  3.0000E-09  3.0000E-09  6.0000E-09   0.000    
   5   2.4000E-08  1.5000E-08  3.0000E-09  3.0000E-09  3.0000E-09  3.0000E-09  3.0000E-09  3.0000E-09  3.0000E-09  3.0000E-09
   6   2.4000E-08  1.5000E-08  1.5000E-08  6.0000E-09  6.0000E-09  3.0000E-09  3.0000E-09  3.0000E-09  3.0000E-09  1.5000E-08
   7   2.4000E-08  1.5000E-08  1.5000E-08  6.0000E-09  6.0000E-09  3.0000E-09  3.0000E-09  6.0000E-09  6.0000E-09   0.000    
   8    0.000      1.5000E-08  1.5000E-08  6.0000E-09  6.0000E-09  3.0000E-09  3.0000E-09  6.0000E-09  1.5000E-08   0.000    
   9    0.000      1.5000E-08  1.5000E-08  6.0000E-09  6.0000E-09  3.0000E-09  3.0000E-09  6.0000E-09  1.5000E-08   0.000    
  10    0.000      1.5000E-08  1.5000E-08  6.0000E-09  6.0000E-09  3.0000E-09  3.0000E-09  6.0000E-09  1.5000E-08  2.4000E-08
  11    0.000      3.0000E-09  3.0000E-09  3.0000E-09  3.0000E-09  3.0000E-09  3.0000E-09  6.0000E-09  1.5000E-08   0.000    
  12   3.0000E-09  3.0000E-09  3.0000E-09  3.0000E-09  3.0000E-09  3.0000E-09  3.0000E-09  3.0000E-09  6.0000E-09   0.000    
  13   3.0000E-09  3.0000E-09  6.0000E-09  6.0000E-09  6.0000E-09  6.0000E-09  6.0000E-09  3.0000E-09  3.0000E-09   0.000    
  14    0.000      6.0000E-09  1.5000E-08  1.5000E-08  1.5000E-08  1.5000E-08  1.5000E-08  6.0000E-09  3.0000E-09   0.000    
  15    0.000       0.000      2.4000E-08  2.4000E-08  2.4000E-08  2.4000E-08   0.000       0.000       0.000       0.000    

USING ET RATE FROM PREVIOUS STRESS PERIOD. CURRENT PERIOD IS:       9

 USING ET EXTINCTION DEPTH FROM PREVIOUS STRESS PERIOD. CURRENT PERIOD IS:       9

 USING EXTINCTION WATER CONTENT FROM PREVIOUS STRESS PERIOD. CURRENT PERIOD IS:       9




 If any subsequent steady-state stress periods, min. and max. stages for each lake will be read in Record 9a.




 REUSING LAKE CONFIGURATION DATA FROM LAST STRESS PERIOD


 LAKE       PRECIP     EVAP     RUNOFF   WITHDRAW   BOTTOM     AREA
----------------------------------------------------------------------
   1     0.000E+00 4.000E-08 0.000E+00  0.000E+00 1.074E+03 2.500E+07




         C               INTERFACE CONDUCTANCES BETWEEN LAKE AND AQUIFER CELLS
   L     O          (IF TYPE = 6, CONDUCTANCE (L^2/T) IS BETWEEN AQUIFER CELL AND OVERLYING LAKE CELL.)
   A     L  L  T    (IF TYPE = 1 TO 4, CONDUCTANCES ARE PER UNIT SATURATED THICKNESS (L/T).)
   Y  R  U  A  Y
   E  O  M  K  P                        LAKEBED      C O N D U C T A N C E S
   R  W  N  E  E     DELTA Y   DELTA X  LEAKANCE   LAKEBED   AQUIFER  COMBINED
 _______________________________________________________________________________
   1  4  4  1  2    5.00E+03  5.00E+03  5.00E-02  2.50E+02  6.00E-03  6.00E-03
   1  3  5  1  3    5.00E+03  5.00E+03  5.00E-02  2.50E+02  1.20E-03  1.20E-03
   2  4  5  1  6    5.00E+03  5.00E+03  5.00E-02  1.25E+06  9.42E+00  9.42E+00
   1  5  5  1  4    5.00E+03  5.00E+03  5.00E-02  2.50E+02  6.00E-03  6.00E-03
   1  4  6  1  1    5.00E+03  5.00E+03  5.00E-02  2.50E+02  6.00E-03  6.00E-03
      LAKE     INFLOWING STREAM SEGMENT
         1                  9

 MAXIMUM NUMBER OF STREAMS INFLOWING TO A LAKE IS    1

      LAKE     OUTFLOWING STREAM SEGMENT
         1                 10

 MAXIMUM NUMBER OF STREAMS OUTFLOWING FROM A LAKE IS    1

 
 SOLVING FOR HEAD 
                                                   Max.-Head-Change                         Max.-Flux-Residual
  Residual-Control   Outer-Iter.   Inner-Iter.     Column Row Layer    Maximum-Head-Change  Column Row Layer    Maximum-Flux-Residual          L2-NORM 
          0                 1           2             3    2     2       0.9128059929E-01       3    2    2         0.2460063397E+01      0.7066109336E+01
          0                 2           2             3    2     2      -0.4684248647E-02       3    2    2        -0.1309793565E+00      0.4893833148E+00
          0                 3           1             6   10     2       0.2273860220E-03       5    4    2        -0.7186537925E-02      0.2108018077E-01

    ------------------------------------------------
       NWT REQUIRED            3 OUTER ITERATIONS 
       AND A TOTAL OF          5 INNER ITERATIONS.
    ------------------------------------------------

 NO OUTPUT CONTROL FOR STRESS PERIOD    9   TIME STEP    1
 ..........LAKE  1 IS DRY..........
 
 SOLVING FOR HEAD 
                                                   Max.-Head-Change                         Max.-Flux-Residual
  Residual-Control   Outer-Iter.   Inner-Iter.     Column Row Layer    Maximum-Head-Change  Column Row Layer    Maximum-Flux-Residual          L2-NORM 
          0                 1           2             3    2     2       0.8713003404E-01       3    2    2         0.2364423756E+01      0.7034792570E+01
          0                 2           2             3    2     2      -0.4599036314E-02       5    4    2         0.1427836115E+00      0.4932152256E+00
          0                 3           1             5    4     2      -0.2621755341E-03       5    4    2        -0.8468744519E-02      0.2156069681E-01

    ------------------------------------------------
       NWT REQUIRED            3 OUTER ITERATIONS 
       AND A TOTAL OF          5 INNER ITERATIONS.
    ------------------------------------------------

 NO OUTPUT CONTROL FOR STRESS PERIOD    9   TIME STEP    2
 ..........LAKE  1 IS DRY..........
 
 SOLVING FOR HEAD 
                                                   Max.-Head-Change                         Max.-Flux-Residual
  Residual-Control   Outer-Iter.   Inner-Iter.     Column Row Layer    Maximum-Head-Change  Column Row Layer    Maximum-Flux-Residual          L2-NORM 
          0                 1           2             3    2     2       0.8224927153E-01       3    2    2         0.2256770500E+01      0.7319289370E+01
          0                 2           2             5    4     2       0.5107173348E-02       5    4    2         0.1609517359E+00      0.5291602418E+00
          0                 3           1             5    4     2      -0.2949360048E-03       5    4    2        -0.9509597015E-02      0.2435147916E-01

    ------------------------------------------------
       NWT REQUIRED            3 OUTER ITERATIONS 
       AND A TOTAL OF          5 INNER ITERATIONS.
    ------------------------------------------------

 NO OUTPUT CONTROL FOR STRESS PERIOD    9   TIME STEP    3
 ..........LAKE  1 IS DRY..........
 
 SOLVING FOR HEAD 
                                                   Max.-Head-Change                         Max.-Flux-Residual
  Residual-Control   Outer-Iter.   Inner-Iter.     Column Row Layer    Maximum-Head-Change  Column Row Layer    Maximum-Flux-Residual          L2-NORM 
          0                 1           2             3    2     2       0.7784082016E-01       3    2    2         0.2132292150E+01      0.6828979062E+01
          0                 2           2             5    4     2       0.5049095236E-02       5    4    2         0.1587557776E+00      0.4952460714E+00
          0                 3           1             5    4     2      -0.2916477629E-03       5    4    2        -0.9393463924E-02      0.2259400165E-01

    ------------------------------------------------
       NWT REQUIRED            3 OUTER ITERATIONS 
       AND A TOTAL OF          5 INNER ITERATIONS.
    ------------------------------------------------

 NO OUTPUT CONTROL FOR STRESS PERIOD    9   TIME STEP    4
 ..........LAKE  1 IS DRY..........
 
 SOLVING FOR HEAD 
                                                   Max.-Head-Change                         Max.-Flux-Residual
  Residual-Control   Outer-Iter.   Inner-Iter.     Column Row Layer    Maximum-Head-Change  Column Row Layer    Maximum-Flux-Residual          L2-NORM 
          0                 1           2             3    2     2       0.7378884586E-01       3    2    2         0.2018011896E+01      0.6456081841E+01
          0                 2           2             5    4     2       0.4648891504E-02       5    4    2         0.1461512177E+00      0.4666442787E+00
          0                 3           1             5    4     2      -0.2686966826E-03       5    4    2        -0.8652796742E-02      0.2101595387E-01

    ------------------------------------------------
       NWT REQUIRED            3 OUTER ITERATIONS 
       AND A TOTAL OF          5 INNER ITERATIONS.
    ------------------------------------------------

 OUTPUT CONTROL FOR STRESS PERIOD    9   TIME STEP    5
    PRINT BUDGET
    SAVE BUDGET

            WELLS   PERIOD    9   STEP   5
 WELL      1   LAYER   2   ROW     6   COL     4   RATE    -1.00000    
 WELL      2   LAYER   2   ROW     6   COL     5   RATE    -1.00000    
 WELL      3   LAYER   2   ROW     7   COL     4   RATE    -1.00000    
 WELL      4   LAYER   2   ROW     7   COL     5   RATE    -1.00000    
 WELL      5   LAYER   2   ROW     8   COL     4   RATE    -1.00000    
 WELL      6   LAYER   2   ROW     8   COL     5   RATE    -1.00000    
 WELL      7   LAYER   2   ROW     9   COL     4   RATE    -1.00000    
 WELL      8   LAYER   2   ROW     9   COL     5   RATE    -1.00000    
 WELL      9   LAYER   2   ROW    10   COL     4   RATE    -1.00000    
 WELL     10   LAYER   2   ROW    10   COL     5   RATE    -1.00000    

  HEAD DEP BOUNDS   PERIOD    9   STEP     5
 BOUNDARY      1   LAYER   2   ROW    13   COL     1   RATE   -0.313239    
 BOUNDARY      2   LAYER   2   ROW    14   COL     9   RATE    0.214693    



 STREAM LISTING     PERIOD      9   STEP        5

 LAYER ROW COL. STREAM  RCH.  FLOW INTO     FLOW TO   FLOW OUT OF   OVRLND.     DIRECT     STREAM       STREAM     STREAM     STREAM   STREAMBED  STREAMBED
                SEG.NO.  NO.  STRM. RCH.    AQUIFER    STRM. RCH.    RUNOFF     PRECIP       ET          HEAD       DEPTH      WIDTH   CONDCTNC.   GRADIENT

   2    1    1     1     1    1.4800E+02  1.5533E+00   1.4645E+02  0.000E+00  0.000E+00  0.000E+00  1.09513E+03  2.079E+00  2.544E+01  1.145E+00  4.522E-01
   2    2    2     1     2    1.4645E+02  5.3816E+00   1.4107E+02  0.000E+00  0.000E+00  0.000E+00  1.09012E+03  2.061E+00  2.522E+01  1.765E+00  1.016E+00
   2    3    3     1     3    1.4107E+02  7.4746E+00   1.3359E+02  0.000E+00  0.000E+00  0.000E+00  1.08444E+03  2.026E+00  2.479E+01  1.487E+00  1.675E+00
   2    3    4     1     4    1.3359E+02  6.7238E+00   1.2687E+02  0.000E+00  0.000E+00  0.000E+00  1.07939E+03  1.986E+00  2.430E+01  1.349E+00  1.662E+00
   2    4    5     2     1    1.1687E+02  0.0000E+00   1.1687E+02  0.000E+00  0.000E+00  0.000E+00  1.07494E+03  3.009E+00  1.200E+01  7.800E-01  2.003E+00
   2    5    6     2     2    1.1687E+02  3.5663E+00   1.1330E+02  0.000E+00  0.000E+00  0.000E+00  1.06945E+03  2.944E+00  1.200E+01  6.000E-01  1.981E+00
   2    6    6     2     3    1.1330E+02  3.5320E+00   1.0977E+02  0.000E+00  0.000E+00  0.000E+00  1.06468E+03  2.887E+00  1.200E+01  6.000E-01  1.962E+00
   2    7    6     2     4    1.0977E+02  3.4976E+00   1.0627E+02  0.000E+00  0.000E+00  0.000E+00  1.05990E+03  2.829E+00  1.200E+01  6.000E-01  1.943E+00
   2    8    6     2     5    1.0627E+02  3.4631E+00   1.0281E+02  0.000E+00  0.000E+00  0.000E+00  1.05513E+03  2.772E+00  1.200E+01  6.000E-01  1.924E+00
   2    3    5     3     1    1.0000E+01  2.8252E+00   7.1748E+00  0.000E+00  0.000E+00  0.000E+00  1.07555E+03  1.909E+00  9.636E+00  7.227E-01  1.955E+00
   2    3    6     3     2    7.1748E+00  2.4905E+00   4.6843E+00  0.000E+00  0.000E+00  0.000E+00  1.07264E+03  1.727E+00  8.909E+00  6.682E-01  1.864E+00
   2    3    7     3     3    4.6843E+00  1.9718E+00   2.7125E+00  0.000E+00  0.000E+00  0.000E+00  1.06987E+03  1.555E+00  8.218E+00  5.547E-01  1.777E+00
   2    4    8     3     4    2.7125E+00  2.2567E+00   4.5579E-01  0.000E+00  0.000E+00  0.000E+00  1.06682E+03  1.364E+00  7.455E+00  6.709E-01  1.682E+00
   2    5    8     3     5    4.5579E-01  4.5579E-01   0.0000E+00  0.000E+00  0.000E+00  0.000E+00  1.06362E+03  0.000E+00  6.655E+00  4.991E-01  1.582E+00
   2    6    8     3     6    0.0000E+00  0.0000E+00   0.0000E+00  0.000E+00  0.000E+00  0.000E+00  1.06055E+03  0.000E+00  6.145E+00  1.844E-01  1.000E+00
   2    5   10     4     1    1.0000E+01  9.0525E-01   9.0947E+00  0.000E+00  0.000E+00  0.000E+00  1.07835E+03  6.210E-01  1.000E+01  2.500E-01  1.207E+00
   2    5    9     4     2    9.0947E+00  1.7835E+00   7.3113E+00  0.000E+00  0.000E+00  0.000E+00  1.07148E+03  5.670E-01  1.000E+01  5.000E-01  1.189E+00
   2    6    8     4     3    7.3113E+00  1.2257E+00   6.0855E+00  0.000E+00  0.000E+00  0.000E+00  1.06368E+03  5.021E-01  1.000E+01  3.500E-01  1.167E+00
   2    6    8     5     1    6.0855E+00  1.4716E+00   4.6139E+00  0.000E+00  0.000E+00  0.000E+00  1.05854E+03  5.396E-01  1.039E+01  4.158E-01  1.180E+00
   2    7    7     5     2    4.6139E+00  1.4897E+00   3.1242E+00  0.000E+00  0.000E+00  0.000E+00  1.05398E+03  4.817E-01  8.557E+00  4.279E-01  1.161E+00
   2    8    7     5     3    3.1242E+00  8.2855E-01   2.2957E+00  0.000E+00  0.000E+00  0.000E+00  1.04968E+03  4.253E-01  6.911E+00  2.419E-01  1.142E+00
   2    8    6     5     4    2.2957E+00  4.9455E-01   1.8011E+00  0.000E+00  0.000E+00  0.000E+00  1.04664E+03  3.856E-01  5.843E+00  1.461E-01  1.129E+00
   2    9    6     6     1    1.0461E+02  3.4648E+00   1.0114E+02  0.000E+00  0.000E+00  0.000E+00  1.04550E+03  2.775E+00  1.200E+01  6.000E-01  1.925E+00
   2   10    7     6     2    1.0114E+02  3.4295E+00   9.7714E+01  0.000E+00  0.000E+00  0.000E+00  1.04090E+03  2.716E+00  1.200E+01  6.000E-01  1.905E+00
   2   11    7     6     3    9.7714E+01  2.4764E+00   9.5238E+01  0.000E+00  0.000E+00  0.000E+00  1.03630E+03  2.665E+00  1.200E+01  6.000E-01  1.376E+00
   2   12    7     6     4    9.5238E+01  1.1816E+00   9.4057E+01  0.000E+00  0.000E+00  0.000E+00  1.03172E+03  2.633E+00  1.200E+01  6.000E-01  6.564E-01
   2   13    7     6     5    9.4057E+01 -2.3669E-01   9.4293E+01  0.000E+00  0.000E+00  0.000E+00  1.02853E+03  2.624E+00  1.200E+01  2.400E-01 -3.287E-01
   2   14    9     7     1    1.5000E+02  2.8746E+00   1.4713E+02  0.000E+00  0.000E+00  0.000E+00  1.03986E+03  2.284E+00  5.528E+01  5.591E+00  1.714E-01
   2   13    8     7     2    1.4713E+02  3.5521E+00   1.4357E+02  0.000E+00  0.000E+00  0.000E+00  1.03477E+03  2.266E+00  5.520E+01  6.141E+00  1.928E-01
   2   13    7     7     3    1.4357E+02  8.6035E-01   1.4271E+02  0.000E+00  0.000E+00  0.000E+00  1.02967E+03  2.255E+00  5.515E+01  5.577E+00  5.143E-02
   2   13    6     8     1    2.3701E+02  1.9079E-01   2.3707E+02  2.577E-01  0.000E+00  0.000E+00  1.02519E+03  3.319E+00  4.813E+01  4.904E+00  1.297E-02
   2   13    5     8     2    2.3707E+02 -2.8524E+00   2.4018E+02  2.577E-01  0.000E+00  0.000E+00  1.01895E+03  3.328E+00  4.825E+01  4.917E+00 -1.934E-01
   2   13    4     8     3    2.4018E+02 -5.1259E+00   2.4557E+02  2.577E-01  0.000E+00  0.000E+00  1.01273E+03  3.350E+00  4.858E+01  4.950E+00 -3.452E-01
   2   13    3     8     4    2.4557E+02 -5.8599E+00   2.5168E+02  2.577E-01  0.000E+00  0.000E+00  1.00651E+03  3.380E+00  4.901E+01  4.995E+00 -3.911E-01
   2   13    2     8     5    2.5168E+02 -4.1470E+00   2.5609E+02  2.577E-01  0.000E+00  0.000E+00  1.00028E+03  3.407E+00  4.941E+01  5.035E+00 -2.745E-01
   2   13    1     8     6    2.5609E+02 -2.8607E+00   2.5910E+02  1.546E-01  0.000E+00  0.000E+00  9.95301E+02  3.426E+00  4.968E+01  3.038E+00 -3.139E-01
   2    4    5     9     1    0.0000E+00  0.0000E+00   0.0000E+00  0.000E+00  0.000E+00  0.000E+00  1.06000E+03  1.673E-04  2.000E+01  2.000E-03 -2.371E-01
   2    4    5    10     1    0.0000E+00  0.0000E+00   0.0000E+00  0.000E+00  0.000E+00  0.000E+00  1.08000E+03  0.000E+00  2.000E+01  2.000E-03  1.000E+00



 ..........LAKE  1 IS DRY..........

     SECTIONS OF THE LAKE BOTTOM HAVE BECOME DRY.  THE DRYSECTIONS
     LIE ABOVE THE FOLLOWING  1 AQUIFER CELLS (LAYER,ROW,COLUMN):
     (  2,  4,  5)  (

 PERIOD     9     TIME STEP     5     TIME STEP LENGTH  1.7520E+05
 PERIOD TIME  8.7600E+05     TOTAL SIMULATION TIME  2.1900E+07


                 HYDROLOGIC BUDGET SUMMARIES FOR SIMULATED LAKES
     (ALL FLUID FLUXES ARE VOLUMES ADDED TO THE LAKE DURING PRESENT TIME STEP)
     ----------------------------------------------------------------------------------------
 LAKE    STAGE         VOLUME     VOL. CHANGE      PRECIP     EVAPORATION    SPECIFIED RUNOFF     COMPUTED RUNOFF    TOTAL RUNOFF
   1  1.074500E+03  0.000000E+00  0.000000E+00  0.000000E+00  0.000000E+00   0.000000E+00          0.000000E+00      0.000000E+00

            GROUND WATER            SURFACE WATER        WATER          UZF INFIL.
 LAKE    INFLOW     OUTFLOW      INFLOW     OUTFLOW       USE        FROM LAKE
   1  0.0000E+00  0.0000E+00  0.0000E+00  0.0000E+00  0.0000E+00       0.0000E+00

      CONNECTED LAKE   TIME-STEP         STAGE-CHANGE          PERCENT
 LAKE    INFLUX      SURFACE AREA   TIME STEP  CUMULATIVE    DISCREPANCY
   1   0.0000E+00     0.0000E+00  -1.3306E-03  7.4458E-04       0.000
 --------------------------------------------------------------------------------



            CUMULATIVE HYDROLOGIC BUDGET SUMMARIES FOR SIMULATED LAKES
     (ALL FLUID FLUXES ARE SUMS OF VOLUMES ADDED TO THE LAKE SINCE INITIAL TIME)
     ---------------------------------------------------------------------------
 LAKE       PRECIP       EVAP     SPECIFIED RUNOFF   COMPUTED RUNOFF   TOTAL RUNOFF
   1     0.0000E+00  1.6028E+06       0.0000E+00       0.0000E+00       0.0000E+00

            GROUND WATER            SURFACE WATER       UZF INFIL.
 LAKE    INFLOW     OUTFLOW      INFLOW     OUTFLOW     FROM LAKE
   1  0.0000E+00  0.0000E+00  1.9325E+08  4.8784E+07    1.4286E+08

         WATER    CONNECTED LAKE   CHANGE       PERCENT
 LAKE     USE         INFLUX       IN VOL.    DISCREPANCY
   1   0.0000E+00   0.0000E+00   0.0000E+00     -0.000
 --------------------------------------------------------------------------------

 UBDSV3 SAVING "           GW ET" ON UNIT  61 AT TIME STEP     5, STRESS PERIOD   9
 UBDSV3 SAVING "    UZF RECHARGE" ON UNIT  61 AT TIME STEP     5, STRESS PERIOD   9
 UBDSV3 SAVING " SURFACE LEAKAGE" ON UNIT  61 AT TIME STEP     5, STRESS PERIOD   9
 UBDSV3 SAVING "       HORT+DUNN" ON UNIT  61 AT TIME STEP     5, STRESS PERIOD   9
 UBDSV3 SAVING "  STORAGE CHANGE" ON UNIT  61 AT TIME STEP     5, STRESS PERIOD   9


UNSATURATED ZONE PACKAGE VOLUMETRIC BUDGET FOR  TIME STEP     5 STRESS PERIOD    9
  ------------------------------------------------------------------------------



     CUMULATIVE VOLUMES      L**3       RATES FOR THIS TIME STEP      L**3/T
     ------------------                 ------------------------

           IN:                                      IN:
           ---                                      ---
        INFILTRATION =  1519085520.6659          INFILTRATION =          25.2792

          OUT:                                     OUT:
          ----                                     ----
              UZF ET =  1378414912.3739                UZF ET =          35.9660
        UZF RECHARGE =   684329775.2372          UZF RECHARGE =           8.4428

            IN - OUT =  -543659166.9451              IN - OUT =         -19.1295

          STORAGE:                                 STORAGE:
          --------                                 --------
      STORAGE CHANGE =  -543685496.6588        STORAGE CHANGE =         -19.1228

 PERCENT DISCREPANCY IS DIFFERENCE BETWEEN IN-OUT MINUS CHANGE IN STORAGE
 DIVIDED BY THE AVERAGE OF IN AND OUT TIMES 100

 PERCENT DISCREPANCY =           0.00     PERCENT DISCREPANCY =          -0.02






1
  VOLUMETRIC BUDGET FOR ENTIRE MODEL AT END OF TIME STEP    5, STRESS PERIOD   9
  ------------------------------------------------------------------------------

     CUMULATIVE VOLUMES      L**3       RATES FOR THIS TIME STEP      L**3/T
     ------------------                 ------------------------

           IN:                                      IN:
           ---                                      ---
             STORAGE =   167840608.0000               STORAGE =           8.5545
       CONSTANT HEAD =           0.0000         CONSTANT HEAD =           0.0000
               WELLS =           0.0000                 WELLS =           0.0000
     HEAD DEP BOUNDS =     4697093.5000       HEAD DEP BOUNDS =           0.2147
      STREAM LEAKAGE =  1678920192.0000        STREAM LEAKAGE =          71.4212
       LAKE  SEEPAGE =           0.0000         LAKE  SEEPAGE =           0.0000
        UZF RECHARGE =   684329664.0000          UZF RECHARGE =           8.4428
               GW ET =           0.0000                 GW ET =           0.0000
     SURFACE LEAKAGE =           0.0000       SURFACE LEAKAGE =           0.0000

            TOTAL IN =  2535787520.0000              TOTAL IN =          88.6333

          OUT:                                     OUT:
          ----                                     ----
             STORAGE =  1511923712.0000               STORAGE =          42.4582
       CONSTANT HEAD =           0.0000         CONSTANT HEAD =           0.0000
               WELLS =   297840000.0000                 WELLS =          10.0000
     HEAD DEP BOUNDS =     6661056.5000       HEAD DEP BOUNDS =           0.3132
      STREAM LEAKAGE =   388794464.0000        STREAM LEAKAGE =          21.0825
       LAKE  SEEPAGE =           0.0000         LAKE  SEEPAGE =           0.0000
        UZF RECHARGE =           0.0000          UZF RECHARGE =           0.0000
               GW ET =   310536768.0000                 GW ET =          18.1796
     SURFACE LEAKAGE =    82630336.0000       SURFACE LEAKAGE =           1.3715

           TOTAL OUT =  2598386432.0000             TOTAL OUT =          93.4051

            IN - OUT =   -62598912.0000              IN - OUT =          -4.7718

 PERCENT DISCREPANCY =          -2.44     PERCENT DISCREPANCY =          -5.24






         TIME SUMMARY AT END OF TIME STEP    5 IN STRESS PERIOD    9
                    SECONDS     MINUTES      HOURS       DAYS        YEARS
                    -----------------------------------------------------------
   TIME STEP LENGTH 1.75200E+05  2920.0      48.667      2.0278     5.55175E-03
 STRESS PERIOD TIME 8.76000E+05  14600.      243.33      10.139     2.77588E-02
         TOTAL TIME 2.19000E+07 3.65000E+05  6083.3      253.47     0.69397    
1
 
 SOLVING FOR HEAD 
                                                   Max.-Head-Change                         Max.-Flux-Residual
  Residual-Control   Outer-Iter.   Inner-Iter.     Column Row Layer    Maximum-Head-Change  Column Row Layer    Maximum-Flux-Residual          L2-NORM 
          0                 1           2             3    3     2       0.1635907474E+00       3    3    2         0.4417309115E+01      0.1245021633E+02
          0                 2           2             3    3     2      -0.1540389972E-01       3    3    2        -0.4349495147E+00      0.1091909578E+01
          0                 3           1             3    3     2       0.8621078205E-03       3    3    2         0.2544077111E-01      0.5428597897E-01

    ------------------------------------------------
       NWT REQUIRED            3 OUTER ITERATIONS 
       AND A TOTAL OF          5 INNER ITERATIONS.
    ------------------------------------------------

 NO OUTPUT CONTROL FOR STRESS PERIOD    9   TIME STEP    6
 ..........LAKE  1 IS DRY..........
 
 SOLVING FOR HEAD 
                                                   Max.-Head-Change                         Max.-Flux-Residual
  Residual-Control   Outer-Iter.   Inner-Iter.     Column Row Layer    Maximum-Head-Change  Column Row Layer    Maximum-Flux-Residual          L2-NORM 
          0                 1           2             3    3     2       0.1580509916E+00       3    3    2         0.4262331590E+01      0.1127511756E+02
          0                 2           2             3    3     2      -0.1488479077E-01       3    3    2        -0.4199587066E+00      0.9469128234E+00
          0                 3           1             3    3     2       0.8338231104E-03       3    3    2         0.2459659073E-01      0.4788388700E-01

    ------------------------------------------------
       NWT REQUIRED            3 OUTER ITERATIONS 
       AND A TOTAL OF          5 INNER ITERATIONS.
    ------------------------------------------------

 NO OUTPUT CONTROL FOR STRESS PERIOD    9   TIME STEP    7
 ..........LAKE  1 IS DRY..........
 
 SOLVING FOR HEAD 
                                                   Max.-Head-Change                         Max.-Flux-Residual
  Residual-Control   Outer-Iter.   Inner-Iter.     Column Row Layer    Maximum-Head-Change  Column Row Layer    Maximum-Flux-Residual          L2-NORM 
          0                 1           2             3    3     2       0.1528822513E+00       3    3    2         0.4117888410E+01      0.1049073129E+02
          0                 2           2             3    3     2      -0.1440286990E-01       3    3    2        -0.4060234253E+00      0.8633757285E+00
          0                 3           1             3    3     2       0.8073625445E-03       3    3    2         0.2380900476E-01      0.4418713195E-01

    ------------------------------------------------
       NWT REQUIRED            3 OUTER ITERATIONS 
       AND A TOTAL OF          5 INNER ITERATIONS.
    ------------------------------------------------

 NO OUTPUT CONTROL FOR STRESS PERIOD    9   TIME STEP    8
 ..........LAKE  1 IS DRY..........
 
 SOLVING FOR HEAD 
                                                   Max.-Head-Change                         Max.-Flux-Residual
  Residual-Control   Outer-Iter.   Inner-Iter.     Column Row Layer    Maximum-Head-Change  Column Row Layer    Maximum-Flux-Residual          L2-NORM 
          0                 1           2             3    2     2       0.7771310233E-01       3    2    2         0.2057348284E+01      0.6955577365E+01
          0                 2           2             3    3     2      -0.5925499968E-02       3    3    2        -0.1649365077E+00      0.5178202931E+00
          0                 3           1             5    4     2      -0.3611956310E-03       5    4    2        -0.1126972070E-01      0.2540102782E-01

    ------------------------------------------------
       NWT REQUIRED            3 OUTER ITERATIONS 
       AND A TOTAL OF          5 INNER ITERATIONS.
    ------------------------------------------------

 NO OUTPUT CONTROL FOR STRESS PERIOD    9   TIME STEP    9
 ..........LAKE  1 IS DRY..........
 
 SOLVING FOR HEAD 
                                                   Max.-Head-Change                         Max.-Flux-Residual
  Residual-Control   Outer-Iter.   Inner-Iter.     Column Row Layer    Maximum-Head-Change  Column Row Layer    Maximum-Flux-Residual          L2-NORM 
          0                 1           2             3    2     2       0.7369523636E-01       6   13    2        -0.2226402543E+01      0.7527726892E+01
          0                 2           2             5    4     2       0.6491311148E-02       5    4    2         0.2051179494E+00      0.5648027503E+00
          0                 3           1             5    4     2      -0.3772733584E-03       5    4    2        -0.1219684811E-01      0.2671180491E-01

    ------------------------------------------------
       NWT REQUIRED            3 OUTER ITERATIONS 
       AND A TOTAL OF          5 INNER ITERATIONS.
    ------------------------------------------------

 OUTPUT CONTROL FOR STRESS PERIOD    9   TIME STEP   10
    PRINT BUDGET
    SAVE BUDGET

            WELLS   PERIOD    9   STEP  10
 WELL      1   LAYER   2   ROW     6   COL     4   RATE    -1.00000    
 WELL      2   LAYER   2   ROW     6   COL     5   RATE    -1.00000    
 WELL      3   LAYER   2   ROW     7   COL     4   RATE    -1.00000    
 WELL      4   LAYER   2   ROW     7   COL     5   RATE    -1.00000    
 WELL      5   LAYER   2   ROW     8   COL     4   RATE    -1.00000    
 WELL      6   LAYER   2   ROW     8   COL     5   RATE    -1.00000    
 WELL      7   LAYER   2   ROW     9   COL     4   RATE    -1.00000    
 WELL      8   LAYER   2   ROW     9   COL     5   RATE    -1.00000    
 WELL      9   LAYER   2   ROW    10   COL     4   RATE    -1.00000    
 WELL     10   LAYER   2   ROW    10   COL     5   RATE    -1.00000    

  HEAD DEP BOUNDS   PERIOD    9   STEP    10
 BOUNDARY      1   LAYER   2   ROW    13   COL     1   RATE   -0.315942    
 BOUNDARY      2   LAYER   2   ROW    14   COL     9   RATE    0.214691    



 STREAM LISTING     PERIOD      9   STEP       10

 LAYER ROW COL. STREAM  RCH.  FLOW INTO     FLOW TO   FLOW OUT OF   OVRLND.     DIRECT     STREAM       STREAM     STREAM     STREAM   STREAMBED  STREAMBED
                SEG.NO.  NO.  STRM. RCH.    AQUIFER    STRM. RCH.    RUNOFF     PRECIP       ET          HEAD       DEPTH      WIDTH   CONDCTNC.   GRADIENT

   2    1    1     1     1    1.6500E+02  1.6173E+00   1.6338E+02  0.000E+00  0.000E+00  0.000E+00  1.09521E+03  2.165E+00  2.651E+01  1.193E+00  4.519E-01
   2    2    2     1     2    1.6338E+02  5.3069E+00   1.5808E+02  0.000E+00  0.000E+00  0.000E+00  1.09021E+03  2.148E+00  2.630E+01  1.841E+00  9.609E-01
   2    3    3     1     3    1.5808E+02  7.9437E+00   1.5013E+02  0.000E+00  0.000E+00  0.000E+00  1.08453E+03  2.115E+00  2.589E+01  1.553E+00  1.705E+00
   2    3    4     1     4    1.5013E+02  7.1552E+00   1.4298E+02  0.000E+00  0.000E+00  0.000E+00  1.07948E+03  2.075E+00  2.540E+01  1.410E+00  1.692E+00
   2    4    5     2     1    1.3298E+02  0.0000E+00   1.3298E+02  0.000E+00  0.000E+00  0.000E+00  1.07519E+03  3.255E+00  1.200E+01  7.800E-01  2.085E+00
   2    5    6     2     2    1.3298E+02  3.7143E+00   1.2926E+02  0.000E+00  0.000E+00  0.000E+00  1.06970E+03  3.191E+00  1.200E+01  6.000E-01  2.064E+00
   2    6    6     2     3    1.2926E+02  3.6805E+00   1.2558E+02  0.000E+00  0.000E+00  0.000E+00  1.06493E+03  3.134E+00  1.200E+01  6.000E-01  2.045E+00
   2    7    6     2     4    1.2558E+02  3.6466E+00   1.2194E+02  0.000E+00  0.000E+00  0.000E+00  1.06015E+03  3.078E+00  1.200E+01  6.000E-01  2.026E+00
   2    8    6     2     5    1.2194E+02  3.6125E+00   1.1832E+02  0.000E+00  0.000E+00  0.000E+00  1.05538E+03  3.021E+00  1.200E+01  6.000E-01  2.007E+00
   2    3    5     3     1    1.0000E+01  2.8252E+00   7.1748E+00  0.000E+00  0.000E+00  0.000E+00  1.07555E+03  1.909E+00  9.636E+00  7.227E-01  1.955E+00
   2    3    6     3     2    7.1748E+00  2.4905E+00   4.6843E+00  0.000E+00  0.000E+00  0.000E+00  1.07264E+03  1.727E+00  8.909E+00  6.682E-01  1.864E+00
   2    3    7     3     3    4.6843E+00  1.9718E+00   2.7125E+00  0.000E+00  0.000E+00  0.000E+00  1.06987E+03  1.555E+00  8.218E+00  5.547E-01  1.777E+00
   2    4    8     3     4    2.7125E+00  2.2567E+00   4.5579E-01  0.000E+00  0.000E+00  0.000E+00  1.06682E+03  1.364E+00  7.455E+00  6.709E-01  1.682E+00
   2    5    8     3     5    4.5579E-01  4.5579E-01   0.0000E+00  0.000E+00  0.000E+00  0.000E+00  1.06362E+03  0.000E+00  6.655E+00  4.991E-01  1.582E+00
   2    6    8     3     6    0.0000E+00  0.0000E+00   0.0000E+00  0.000E+00  0.000E+00  0.000E+00  1.06055E+03  0.000E+00  6.145E+00  1.844E-01  1.000E+00
   2    5   10     4     1    1.0000E+01  9.0525E-01   9.0947E+00  0.000E+00  0.000E+00  0.000E+00  1.07835E+03  6.210E-01  1.000E+01  2.500E-01  1.207E+00
   2    5    9     4     2    9.0947E+00  1.7835E+00   7.3113E+00  0.000E+00  0.000E+00  0.000E+00  1.07148E+03  5.670E-01  1.000E+01  5.000E-01  1.189E+00
   2    6    8     4     3    7.3113E+00  1.2257E+00   6.0855E+00  0.000E+00  0.000E+00  0.000E+00  1.06368E+03  5.021E-01  1.000E+01  3.500E-01  1.167E+00
   2    6    8     5     1    6.0855E+00  1.4716E+00   4.6139E+00  0.000E+00  0.000E+00  0.000E+00  1.05854E+03  5.396E-01  1.039E+01  4.158E-01  1.180E+00
   2    7    7     5     2    4.6139E+00  1.4897E+00   3.1242E+00  0.000E+00  0.000E+00  0.000E+00  1.05398E+03  4.817E-01  8.557E+00  4.279E-01  1.161E+00
   2    8    7     5     3    3.1242E+00  8.2855E-01   2.2957E+00  0.000E+00  0.000E+00  0.000E+00  1.04968E+03  4.253E-01  6.911E+00  2.419E-01  1.142E+00
   2    8    6     5     4    2.2957E+00  4.9455E-01   1.8011E+00  0.000E+00  0.000E+00  0.000E+00  1.04664E+03  3.856E-01  5.843E+00  1.461E-01  1.129E+00
   2    9    6     6     1    1.2012E+02  3.6154E+00   1.1651E+02  0.000E+00  0.000E+00  0.000E+00  1.04575E+03  3.026E+00  1.200E+01  6.000E-01  2.009E+00
   2   10    7     6     2    1.1651E+02  3.5806E+00   1.1293E+02  0.000E+00  0.000E+00  0.000E+00  1.04115E+03  2.968E+00  1.200E+01  6.000E-01  1.989E+00
   2   11    7     6     3    1.1293E+02  2.5447E+00   1.1038E+02  0.000E+00  0.000E+00  0.000E+00  1.03655E+03  2.918E+00  1.200E+01  6.000E-01  1.414E+00
   2   12    7     6     4    1.1038E+02  1.2800E+00   1.0910E+02  0.000E+00  0.000E+00  0.000E+00  1.03198E+03  2.886E+00  1.200E+01  6.000E-01  7.111E-01
   2   13    7     6     5    1.0910E+02 -1.8325E-01   1.0929E+02  0.000E+00  0.000E+00  0.000E+00  1.02879E+03  2.877E+00  1.200E+01  2.400E-01 -2.545E-01
   2   14    9     7     1    1.5000E+02  2.8742E+00   1.4713E+02  0.000E+00  0.000E+00  0.000E+00  1.03986E+03  2.284E+00  5.528E+01  5.591E+00  1.714E-01
   2   13    8     7     2    1.4713E+02  3.5402E+00   1.4359E+02  0.000E+00  0.000E+00  0.000E+00  1.03477E+03  2.267E+00  5.520E+01  6.141E+00  1.922E-01
   2   13    7     7     3    1.4359E+02  6.9463E-01   1.4289E+02  0.000E+00  0.000E+00  0.000E+00  1.02967E+03  2.255E+00  5.515E+01  5.577E+00  4.152E-02
   2   13    6     8     1    2.5218E+02 -2.7442E-01   2.5300E+02  5.484E-01  0.000E+00  0.000E+00  1.02527E+03  3.400E+00  4.930E+01  5.024E+00 -1.821E-02
   2   13    5     8     2    2.5300E+02 -3.1873E+00   2.5674E+02  5.484E-01  0.000E+00  0.000E+00  1.01904E+03  3.412E+00  4.947E+01  5.041E+00 -2.108E-01
   2   13    4     8     3    2.5674E+02 -5.2750E+00   2.6256E+02  5.484E-01  0.000E+00  0.000E+00  1.01281E+03  3.436E+00  4.982E+01  5.077E+00 -3.463E-01
   2   13    3     8     4    2.6256E+02 -6.0057E+00   2.6911E+02  5.484E-01  0.000E+00  0.000E+00  1.00659E+03  3.467E+00  5.027E+01  5.123E+00 -3.908E-01
   2   13    2     8     5    2.6911E+02 -4.4709E+00   2.7413E+02  5.484E-01  0.000E+00  0.000E+00  1.00037E+03  3.496E+00  5.069E+01  5.165E+00 -2.885E-01
   2   13    1     8     6    2.7413E+02 -2.8787E+00   2.7734E+02  3.290E-01  0.000E+00  0.000E+00  9.95391E+02  3.516E+00  5.098E+01  3.117E+00 -3.079E-01
   2    4    5     9     1    0.0000E+00  0.0000E+00   0.0000E+00  0.000E+00  0.000E+00  0.000E+00  1.06000E+03  1.863E-04  2.000E+01  2.000E-03 -2.835E-01
   2    4    5    10     1    0.0000E+00  0.0000E+00   0.0000E+00  0.000E+00  0.000E+00  0.000E+00  1.08000E+03  0.000E+00  2.000E+01  2.000E-03  1.000E+00



 ..........LAKE  1 IS DRY..........

     SECTIONS OF THE LAKE BOTTOM HAVE BECOME DRY.  THE DRYSECTIONS
     LIE ABOVE THE FOLLOWING  1 AQUIFER CELLS (LAYER,ROW,COLUMN):
     (  2,  4,  5)  (

 PERIOD     9     TIME STEP    10     TIME STEP LENGTH  1.7520E+05
 PERIOD TIME  1.7520E+06     TOTAL SIMULATION TIME  2.2776E+07


                 HYDROLOGIC BUDGET SUMMARIES FOR SIMULATED LAKES
     (ALL FLUID FLUXES ARE VOLUMES ADDED TO THE LAKE DURING PRESENT TIME STEP)
     ----------------------------------------------------------------------------------------
 LAKE    STAGE         VOLUME     VOL. CHANGE      PRECIP     EVAPORATION    SPECIFIED RUNOFF     COMPUTED RUNOFF    TOTAL RUNOFF
   1  1.074500E+03  0.000000E+00  0.000000E+00  0.000000E+00  0.000000E+00   0.000000E+00          0.000000E+00      0.000000E+00

            GROUND WATER            SURFACE WATER        WATER          UZF INFIL.
 LAKE    INFLOW     OUTFLOW      INFLOW     OUTFLOW       USE        FROM LAKE
   1  0.0000E+00  0.0000E+00  0.0000E+00  0.0000E+00  0.0000E+00       0.0000E+00

      CONNECTED LAKE   TIME-STEP         STAGE-CHANGE          PERCENT
 LAKE    INFLUX      SURFACE AREA   TIME STEP  CUMULATIVE    DISCREPANCY
   1   0.0000E+00     0.0000E+00  -1.3306E-03  7.4458E-04       0.000
 --------------------------------------------------------------------------------



            CUMULATIVE HYDROLOGIC BUDGET SUMMARIES FOR SIMULATED LAKES
     (ALL FLUID FLUXES ARE SUMS OF VOLUMES ADDED TO THE LAKE SINCE INITIAL TIME)
     ---------------------------------------------------------------------------
 LAKE       PRECIP       EVAP     SPECIFIED RUNOFF   COMPUTED RUNOFF   TOTAL RUNOFF
   1     0.0000E+00  1.6028E+06       0.0000E+00       0.0000E+00       0.0000E+00

            GROUND WATER            SURFACE WATER       UZF INFIL.
 LAKE    INFLOW     OUTFLOW      INFLOW     OUTFLOW     FROM LAKE
   1  0.0000E+00  0.0000E+00  1.9325E+08  4.8784E+07    1.4286E+08

         WATER    CONNECTED LAKE   CHANGE       PERCENT
 LAKE     USE         INFLUX       IN VOL.    DISCREPANCY
   1   0.0000E+00   0.0000E+00   0.0000E+00     -0.000
 --------------------------------------------------------------------------------

 UBDSV3 SAVING "           GW ET" ON UNIT  61 AT TIME STEP    10, STRESS PERIOD   9
 UBDSV3 SAVING "    UZF RECHARGE" ON UNIT  61 AT TIME STEP    10, STRESS PERIOD   9
 UBDSV3 SAVING " SURFACE LEAKAGE" ON UNIT  61 AT TIME STEP    10, STRESS PERIOD   9
 UBDSV3 SAVING "       HORT+DUNN" ON UNIT  61 AT TIME STEP    10, STRESS PERIOD   9
 UBDSV3 SAVING "  STORAGE CHANGE" ON UNIT  61 AT TIME STEP    10, STRESS PERIOD   9


UNSATURATED ZONE PACKAGE VOLUMETRIC BUDGET FOR  TIME STEP    10 STRESS PERIOD    9
  ------------------------------------------------------------------------------



     CUMULATIVE VOLUMES      L**3       RATES FOR THIS TIME STEP      L**3/T
     ------------------                 ------------------------

           IN:                                      IN:
           ---                                      ---
        INFILTRATION =  1541181098.1379          INFILTRATION =          25.2326

          OUT:                                     OUT:
          ----                                     ----
              UZF ET =  1410737225.3258                UZF ET =          37.3133
        UZF RECHARGE =   691770315.3988          UZF RECHARGE =           8.0720

            IN - OUT =  -561326442.5867              IN - OUT =         -20.1527

          STORAGE:                                 STORAGE:
          --------                                 --------
      STORAGE CHANGE =  -561342784.4791        STORAGE CHANGE =         -20.1450

 PERCENT DISCREPANCY IS DIFFERENCE BETWEEN IN-OUT MINUS CHANGE IN STORAGE
 DIVIDED BY THE AVERAGE OF IN AND OUT TIMES 100

 PERCENT DISCREPANCY =           0.00     PERCENT DISCREPANCY =          -0.02






1
  VOLUMETRIC BUDGET FOR ENTIRE MODEL AT END OF TIME STEP   10, STRESS PERIOD   9
  ------------------------------------------------------------------------------

     CUMULATIVE VOLUMES      L**3       RATES FOR THIS TIME STEP      L**3/T
     ------------------                 ------------------------

           IN:                                      IN:
           ---                                      ---
             STORAGE =   170493712.0000               STORAGE =          11.6707
       CONSTANT HEAD =           0.0000         CONSTANT HEAD =           0.0000
               WELLS =           0.0000                 WELLS =           0.0000
     HEAD DEP BOUNDS =     4885165.5000       HEAD DEP BOUNDS =           0.2147
      STREAM LEAKAGE =  1760386944.0000        STREAM LEAKAGE =          73.0055
       LAKE  SEEPAGE =           0.0000         LAKE  SEEPAGE =           0.0000
        UZF RECHARGE =   691770176.0000          UZF RECHARGE =           8.0720
               GW ET =           0.0000                 GW ET =           0.0000
     SURFACE LEAKAGE =           0.0000       SURFACE LEAKAGE =           0.0000

            TOTAL IN =  2627535872.0000              TOTAL IN =          92.9628

          OUT:                                     OUT:
          ----                                     ----
             STORAGE =  1569837056.0000               STORAGE =          43.9650
       CONSTANT HEAD =           0.0000         CONSTANT HEAD =           0.0000
               WELLS =   306600000.0000                 WELLS =          10.0000
     HEAD DEP BOUNDS =     6938062.5000       HEAD DEP BOUNDS =           0.3159
      STREAM LEAKAGE =   399890720.0000        STREAM LEAKAGE =          22.2753
       LAKE  SEEPAGE =           0.0000         LAKE  SEEPAGE =           0.0000
        UZF RECHARGE =           0.0000          UZF RECHARGE =           0.0000
               GW ET =   326653760.0000                 GW ET =          18.4787
     SURFACE LEAKAGE =    85655208.0000       SURFACE LEAKAGE =           2.9505

           TOTAL OUT =  2695574784.0000             TOTAL OUT =          97.9854

            IN - OUT =   -68038912.0000              IN - OUT =          -5.0225

 PERCENT DISCREPANCY =          -2.56     PERCENT DISCREPANCY =          -5.26






         TIME SUMMARY AT END OF TIME STEP   10 IN STRESS PERIOD    9
                    SECONDS     MINUTES      HOURS       DAYS        YEARS
                    -----------------------------------------------------------
   TIME STEP LENGTH 1.75200E+05  2920.0      48.667      2.0278     5.55175E-03
 STRESS PERIOD TIME 1.75200E+06  29200.      486.67      20.278     5.55175E-02
         TOTAL TIME 2.27760E+07 3.79600E+05  6326.7      263.61     0.72173    
1
 
 SOLVING FOR HEAD 
                                                   Max.-Head-Change                         Max.-Flux-Residual
  Residual-Control   Outer-Iter.   Inner-Iter.     Column Row Layer    Maximum-Head-Change  Column Row Layer    Maximum-Flux-Residual          L2-NORM 
          0                 1           2             3    2     2       0.7000061670E-01       3    2    2         0.1910653745E+01      0.6800185935E+01
          0                 2           2             5    4     2       0.6330333259E-02       5    4    2         0.1996515759E+00      0.5226373787E+00
          0                 3           1             5    4     2      -0.3678604389E-03       5    4    2        -0.1188264316E-01      0.2449837254E-01

    ------------------------------------------------
       NWT REQUIRED            3 OUTER ITERATIONS 
       AND A TOTAL OF          5 INNER ITERATIONS.
    ------------------------------------------------

 NO OUTPUT CONTROL FOR STRESS PERIOD    9   TIME STEP   11
 ..........LAKE  1 IS DRY..........
 
 SOLVING FOR HEAD 
                                                   Max.-Head-Change                         Max.-Flux-Residual
  Residual-Control   Outer-Iter.   Inner-Iter.     Column Row Layer    Maximum-Head-Change  Column Row Layer    Maximum-Flux-Residual          L2-NORM 
          0                 1           2             3    2     2       0.6660231973E-01       3    2    2         0.1814871620E+01      0.6329585219E+01
          0                 2           2             5    4     2       0.5978140321E-02       5    4    2         0.1884297808E+00      0.4876311607E+00
          0                 3           1             5    4     2      -0.3475126052E-03       5    4    2        -0.1122186752E-01      0.2262219284E-01

    ------------------------------------------------
       NWT REQUIRED            3 OUTER ITERATIONS 
       AND A TOTAL OF          5 INNER ITERATIONS.
    ------------------------------------------------

 NO OUTPUT CONTROL FOR STRESS PERIOD    9   TIME STEP   12
 ..........LAKE  1 IS DRY..........
 
 SOLVING FOR HEAD 
                                                   Max.-Head-Change                         Max.-Flux-Residual
  Residual-Control   Outer-Iter.   Inner-Iter.     Column Row Layer    Maximum-Head-Change  Column Row Layer    Maximum-Flux-Residual          L2-NORM 
          0                 1           2             3    2     2       0.6269515812E-01       3    2    2         0.1724871269E+01      0.6455329009E+01
          0                 2           2             5    4     2       0.6415772719E-02       5    4    2         0.2015177939E+00      0.5141432684E+00
          0                 3           1             5    4     2      -0.3713763690E-03       5    4    2        -0.1197576837E-01      0.2466131556E-01

    ------------------------------------------------
       NWT REQUIRED            3 OUTER ITERATIONS 
       AND A TOTAL OF          5 INNER ITERATIONS.
    ------------------------------------------------

 NO OUTPUT CONTROL FOR STRESS PERIOD    9   TIME STEP   13
 ..........LAKE  1 IS DRY..........
 
 SOLVING FOR HEAD 
                                                   Max.-Head-Change                         Max.-Flux-Residual
  Residual-Control   Outer-Iter.   Inner-Iter.     Column Row Layer    Maximum-Head-Change  Column Row Layer    Maximum-Flux-Residual          L2-NORM 
          0                 1           2             3    2     2       0.5858648585E-01       3    2    2         0.1624064661E+01      0.6482523138E+01
          0                 2           2             5    4     2       0.6635411281E-02       5    4    2         0.2078329385E+00      0.5288203005E+00
          0                 3           1             5    4     2      -0.3830006601E-03       5    4    2        -0.1233642048E-01      0.2599482731E-01

    ------------------------------------------------
       NWT REQUIRED            3 OUTER ITERATIONS 
       AND A TOTAL OF          5 INNER ITERATIONS.
    ------------------------------------------------

 NO OUTPUT CONTROL FOR STRESS PERIOD    9   TIME STEP   14
 ..........LAKE  1 IS DRY..........
 
 SOLVING FOR HEAD 
                                                   Max.-Head-Change                         Max.-Flux-Residual
  Residual-Control   Outer-Iter.   Inner-Iter.     Column Row Layer    Maximum-Head-Change  Column Row Layer    Maximum-Flux-Residual          L2-NORM 
          0                 1           2             3    2     2       0.5487603461E-01       3    2    2         0.1518997638E+01      0.6059760834E+01
          0                 2           2             5    4     2       0.6278851244E-02       5    4    2         0.1964640584E+00      0.4905574006E+00
          0                 3           1             5    4     2      -0.3624495857E-03       5    4    2        -0.1166859029E-01      0.2387233838E-01

    ------------------------------------------------
       NWT REQUIRED            3 OUTER ITERATIONS 
       AND A TOTAL OF          5 INNER ITERATIONS.
    ------------------------------------------------

 OUTPUT CONTROL FOR STRESS PERIOD    9   TIME STEP   15
    PRINT BUDGET
    PRINT HEAD FOR ALL LAYERS
    SAVE HEAD FOR ALL LAYERS
    SAVE BUDGET

            WELLS   PERIOD    9   STEP  15
 WELL      1   LAYER   2   ROW     6   COL     4   RATE    -1.00000    
 WELL      2   LAYER   2   ROW     6   COL     5   RATE    -1.00000    
 WELL      3   LAYER   2   ROW     7   COL     4   RATE    -1.00000    
 WELL      4   LAYER   2   ROW     7   COL     5   RATE    -1.00000    
 WELL      5   LAYER   2   ROW     8   COL     4   RATE    -1.00000    
 WELL      6   LAYER   2   ROW     8   COL     5   RATE    -1.00000    
 WELL      7   LAYER   2   ROW     9   COL     4   RATE    -1.00000    
 WELL      8   LAYER   2   ROW     9   COL     5   RATE    -1.00000    
 WELL      9   LAYER   2   ROW    10   COL     4   RATE    -1.00000    
 WELL     10   LAYER   2   ROW    10   COL     5   RATE    -1.00000    

  HEAD DEP BOUNDS   PERIOD    9   STEP    15
 BOUNDARY      1   LAYER   2   ROW    13   COL     1   RATE   -0.310619    
 BOUNDARY      2   LAYER   2   ROW    14   COL     9   RATE    0.214680    



 STREAM LISTING     PERIOD      9   STEP       15

 LAYER ROW COL. STREAM  RCH.  FLOW INTO     FLOW TO   FLOW OUT OF   OVRLND.     DIRECT     STREAM       STREAM     STREAM     STREAM   STREAMBED  STREAMBED
                SEG.NO.  NO.  STRM. RCH.    AQUIFER    STRM. RCH.    RUNOFF     PRECIP       ET          HEAD       DEPTH      WIDTH   CONDCTNC.   GRADIENT

   2    1    1     1     1    1.2800E+02  1.3917E+00   1.2661E+02  0.000E+00  0.000E+00  0.000E+00  1.09502E+03  1.969E+00  2.409E+01  1.084E+00  4.279E-01
   2    2    2     1     2    1.2661E+02  4.7830E+00   1.2183E+02  0.000E+00  0.000E+00  0.000E+00  1.09001E+03  1.951E+00  2.387E+01  1.671E+00  9.542E-01
   2    3    3     1     3    1.2183E+02  6.9150E+00   1.1491E+02  0.000E+00  0.000E+00  0.000E+00  1.08434E+03  1.917E+00  2.344E+01  1.406E+00  1.639E+00
   2    3    4     1     4    1.1491E+02  6.2093E+00   1.0870E+02  0.000E+00  0.000E+00  0.000E+00  1.07928E+03  1.876E+00  2.294E+01  1.273E+00  1.625E+00
   2    4    5     2     1    9.8701E+01  0.0000E+00   9.8701E+01  0.000E+00  0.000E+00  0.000E+00  1.07465E+03  2.715E+00  1.200E+01  7.800E-01  1.905E+00
   2    5    6     2     2    9.8701E+01  3.3890E+00   9.5312E+01  0.000E+00  0.000E+00  0.000E+00  1.06916E+03  2.648E+00  1.200E+01  6.000E-01  1.883E+00
   2    6    6     2     3    9.5312E+01  3.3540E+00   9.1958E+01  0.000E+00  0.000E+00  0.000E+00  1.06438E+03  2.590E+00  1.200E+01  6.000E-01  1.863E+00
   2    7    6     2     4    9.1958E+01  3.3188E+00   8.8639E+01  0.000E+00  0.000E+00  0.000E+00  1.05961E+03  2.531E+00  1.200E+01  6.000E-01  1.844E+00
   2    8    6     2     5    8.8639E+01  3.2835E+00   8.5356E+01  0.000E+00  0.000E+00  0.000E+00  1.05483E+03  2.473E+00  1.200E+01  6.000E-01  1.824E+00
   2    3    5     3     1    1.0000E+01  2.8252E+00   7.1748E+00  0.000E+00  0.000E+00  0.000E+00  1.07555E+03  1.909E+00  9.636E+00  7.227E-01  1.955E+00
   2    3    6     3     2    7.1748E+00  2.4905E+00   4.6843E+00  0.000E+00  0.000E+00  0.000E+00  1.07264E+03  1.727E+00  8.909E+00  6.682E-01  1.864E+00
   2    3    7     3     3    4.6843E+00  1.9718E+00   2.7125E+00  0.000E+00  0.000E+00  0.000E+00  1.06987E+03  1.555E+00  8.218E+00  5.547E-01  1.777E+00
   2    4    8     3     4    2.7125E+00  2.2567E+00   4.5579E-01  0.000E+00  0.000E+00  0.000E+00  1.06682E+03  1.364E+00  7.455E+00  6.709E-01  1.682E+00
   2    5    8     3     5    4.5579E-01  4.5579E-01   0.0000E+00  0.000E+00  0.000E+00  0.000E+00  1.06362E+03  0.000E+00  6.655E+00  4.991E-01  1.582E+00
   2    6    8     3     6    0.0000E+00  0.0000E+00   0.0000E+00  0.000E+00  0.000E+00  0.000E+00  1.06055E+03  0.000E+00  6.145E+00  1.844E-01  1.000E+00
   2    5   10     4     1    1.0000E+01  9.0525E-01   9.0947E+00  0.000E+00  0.000E+00  0.000E+00  1.07835E+03  6.210E-01  1.000E+01  2.500E-01  1.207E+00
   2    5    9     4     2    9.0947E+00  1.7835E+00   7.3113E+00  0.000E+00  0.000E+00  0.000E+00  1.07148E+03  5.670E-01  1.000E+01  5.000E-01  1.189E+00
   2    6    8     4     3    7.3113E+00  1.2257E+00   6.0855E+00  0.000E+00  0.000E+00  0.000E+00  1.06368E+03  5.021E-01  1.000E+01  3.500E-01  1.167E+00
   2    6    8     5     1    6.0855E+00  1.4716E+00   4.6139E+00  0.000E+00  0.000E+00  0.000E+00  1.05854E+03  5.396E-01  1.039E+01  4.158E-01  1.180E+00
   2    7    7     5     2    4.6139E+00  1.4897E+00   3.1242E+00  0.000E+00  0.000E+00  0.000E+00  1.05398E+03  4.817E-01  8.557E+00  4.279E-01  1.161E+00
   2    8    7     5     3    3.1242E+00  8.2855E-01   2.2957E+00  0.000E+00  0.000E+00  0.000E+00  1.04968E+03  4.253E-01  6.911E+00  2.419E-01  1.142E+00
   2    8    6     5     4    2.2957E+00  4.9455E-01   1.8011E+00  0.000E+00  0.000E+00  0.000E+00  1.04664E+03  3.856E-01  5.843E+00  1.461E-01  1.129E+00
   2    9    6     6     1    8.7157E+01  3.2839E+00   8.3873E+01  0.000E+00  0.000E+00  0.000E+00  1.04520E+03  2.473E+00  1.200E+01  6.000E-01  1.824E+00
   2   10    7     6     2    8.3873E+01  3.2477E+00   8.0625E+01  0.000E+00  0.000E+00  0.000E+00  1.04059E+03  2.413E+00  1.200E+01  6.000E-01  1.804E+00
   2   11    7     6     3    8.0625E+01  2.2310E+00   7.8394E+01  0.000E+00  0.000E+00  0.000E+00  1.03600E+03  2.362E+00  1.200E+01  6.000E-01  1.239E+00
   2   12    7     6     4    7.8394E+01  9.9257E-01   7.7402E+01  0.000E+00  0.000E+00  0.000E+00  1.03142E+03  2.331E+00  1.200E+01  6.000E-01  5.514E-01
   2   13    7     6     5    7.7402E+01 -3.0463E-01   7.7706E+01  0.000E+00  0.000E+00  0.000E+00  1.02823E+03  2.324E+00  1.200E+01  2.400E-01 -4.231E-01
   2   14    9     7     1    1.5000E+02  2.8726E+00   1.4713E+02  0.000E+00  0.000E+00  0.000E+00  1.03986E+03  2.284E+00  5.528E+01  5.591E+00  1.713E-01
   2   13    8     7     2    1.4713E+02  3.5436E+00   1.4358E+02  0.000E+00  0.000E+00  0.000E+00  1.03477E+03  2.267E+00  5.520E+01  6.141E+00  1.924E-01
   2   13    7     7     3    1.4358E+02  9.5357E-01   1.4263E+02  0.000E+00  0.000E+00  0.000E+00  1.02967E+03  2.254E+00  5.514E+01  5.577E+00  5.700E-02
   2   13    6     8     1    2.2034E+02 -3.9389E-02   2.2061E+02  2.303E-01  0.000E+00  0.000E+00  1.02510E+03  3.230E+00  4.683E+01  4.772E+00 -2.751E-03
   2   13    5     8     2    2.2061E+02 -3.1126E+00   2.2395E+02  2.303E-01  0.000E+00  0.000E+00  1.01886E+03  3.240E+00  4.698E+01  4.787E+00 -2.167E-01
   2   13    4     8     3    2.2395E+02 -5.3643E+00   2.2954E+02  2.303E-01  0.000E+00  0.000E+00  1.01264E+03  3.265E+00  4.734E+01  4.824E+00 -3.707E-01
   2   13    3     8     4    2.2954E+02 -6.0495E+00   2.3582E+02  2.303E-01  0.000E+00  0.000E+00  1.00642E+03  3.297E+00  4.781E+01  4.872E+00 -4.139E-01
   2   13    2     8     5    2.3582E+02 -4.2124E+00   2.4027E+02  2.303E-01  0.000E+00  0.000E+00  1.00020E+03  3.326E+00  4.822E+01  4.914E+00 -2.857E-01
   2   13    1     8     6    2.4027E+02 -2.8286E+00   2.4323E+02  1.382E-01  0.000E+00  0.000E+00  9.95221E+02  3.346E+00  4.851E+01  2.966E+00 -3.179E-01
   2    4    5     9     1    0.0000E+00  0.0000E+00   0.0000E+00  0.000E+00  0.000E+00  0.000E+00  1.06000E+03  1.810E-04  2.000E+01  2.000E-03 -2.703E-01
   2    4    5    10     1    0.0000E+00  0.0000E+00   0.0000E+00  0.000E+00  0.000E+00  0.000E+00  1.08000E+03  0.000E+00  2.000E+01  2.000E-03  1.000E+00



 ..........LAKE  1 IS DRY..........

     SECTIONS OF THE LAKE BOTTOM HAVE BECOME DRY.  THE DRYSECTIONS
     LIE ABOVE THE FOLLOWING  1 AQUIFER CELLS (LAYER,ROW,COLUMN):
     (  2,  4,  5)  (

 PERIOD     9     TIME STEP    15     TIME STEP LENGTH  1.7520E+05
 PERIOD TIME  2.6280E+06     TOTAL SIMULATION TIME  2.3652E+07


                 HYDROLOGIC BUDGET SUMMARIES FOR SIMULATED LAKES
     (ALL FLUID FLUXES ARE VOLUMES ADDED TO THE LAKE DURING PRESENT TIME STEP)
     ----------------------------------------------------------------------------------------
 LAKE    STAGE         VOLUME     VOL. CHANGE      PRECIP     EVAPORATION    SPECIFIED RUNOFF     COMPUTED RUNOFF    TOTAL RUNOFF
   1  1.074500E+03  0.000000E+00  0.000000E+00  0.000000E+00  0.000000E+00   0.000000E+00          0.000000E+00      0.000000E+00

            GROUND WATER            SURFACE WATER        WATER          UZF INFIL.
 LAKE    INFLOW     OUTFLOW      INFLOW     OUTFLOW       USE        FROM LAKE
   1  0.0000E+00  0.0000E+00  0.0000E+00  0.0000E+00  0.0000E+00       0.0000E+00

      CONNECTED LAKE   TIME-STEP         STAGE-CHANGE          PERCENT
 LAKE    INFLUX      SURFACE AREA   TIME STEP  CUMULATIVE    DISCREPANCY
   1   0.0000E+00     0.0000E+00  -1.3306E-03  7.4458E-04       0.000
 --------------------------------------------------------------------------------



            CUMULATIVE HYDROLOGIC BUDGET SUMMARIES FOR SIMULATED LAKES
     (ALL FLUID FLUXES ARE SUMS OF VOLUMES ADDED TO THE LAKE SINCE INITIAL TIME)
     ---------------------------------------------------------------------------
 LAKE       PRECIP       EVAP     SPECIFIED RUNOFF   COMPUTED RUNOFF   TOTAL RUNOFF
   1     0.0000E+00  1.6028E+06       0.0000E+00       0.0000E+00       0.0000E+00

            GROUND WATER            SURFACE WATER       UZF INFIL.
 LAKE    INFLOW     OUTFLOW      INFLOW     OUTFLOW     FROM LAKE
   1  0.0000E+00  0.0000E+00  1.9325E+08  4.8784E+07    1.4286E+08

         WATER    CONNECTED LAKE   CHANGE       PERCENT
 LAKE     USE         INFLUX       IN VOL.    DISCREPANCY
   1   0.0000E+00   0.0000E+00   0.0000E+00     -0.000
 --------------------------------------------------------------------------------

 UBDSV3 SAVING "           GW ET" ON UNIT  61 AT TIME STEP    15, STRESS PERIOD   9
 UBDSV3 SAVING "    UZF RECHARGE" ON UNIT  61 AT TIME STEP    15, STRESS PERIOD   9
 UBDSV3 SAVING " SURFACE LEAKAGE" ON UNIT  61 AT TIME STEP    15, STRESS PERIOD   9
 UBDSV3 SAVING "       HORT+DUNN" ON UNIT  61 AT TIME STEP    15, STRESS PERIOD   9
 UBDSV3 SAVING "  STORAGE CHANGE" ON UNIT  61 AT TIME STEP    15, STRESS PERIOD   9


UNSATURATED ZONE PACKAGE VOLUMETRIC BUDGET FOR  TIME STEP    15 STRESS PERIOD    9
  ------------------------------------------------------------------------------



     CUMULATIVE VOLUMES      L**3       RATES FOR THIS TIME STEP      L**3/T
     ------------------                 ------------------------

           IN:                                      IN:
           ---                                      ---
        INFILTRATION =  1563314419.7236          INFILTRATION =          25.2855

          OUT:                                     OUT:
          ----                                     ----
              UZF ET =  1442966204.2139                UZF ET =          36.3801
        UZF RECHARGE =   698470862.0499          UZF RECHARGE =           7.3796

            IN - OUT =  -578122646.5402              IN - OUT =         -18.4742

          STORAGE:                                 STORAGE:
          --------                                 --------
      STORAGE CHANGE =  -578135477.2810        STORAGE CHANGE =         -18.4725

 PERCENT DISCREPANCY IS DIFFERENCE BETWEEN IN-OUT MINUS CHANGE IN STORAGE
 DIVIDED BY THE AVERAGE OF IN AND OUT TIMES 100

 PERCENT DISCREPANCY =           0.00     PERCENT DISCREPANCY =          -0.00






1
              HEAD IN LAYER   1 AT END OF TIME STEP    15 IN STRESS PERIOD    9
  -----------------------------------------------------------------------------

           1       2       3       4       5       6       7       8       9      10
 ...................................................................................
   1  6999.00 6999.00 6999.00 6999.00 6999.00 6999.00 6999.00 6999.00 6999.00 6999.00
   2  6999.00 6999.00 6999.00 6999.00 6999.00 6999.00 6999.00 6999.00 6999.00 6999.00
   3  6999.00 6999.00 6999.00 6999.00 6999.00 6999.00 6999.00 6999.00 6999.00 6999.00
   4  6999.00 6999.00 6999.00 6999.00 1074.50 6999.00 6999.00 6999.00 6999.00 6999.00
   5  6999.00 6999.00 6999.00 6999.00 6999.00 6999.00 6999.00 6999.00 6999.00 6999.00
   6  6999.00 6999.00 6999.00 6999.00 6999.00 6999.00 6999.00 6999.00 6999.00 6999.00
   7  6999.00 6999.00 6999.00 6999.00 6999.00 6999.00 6999.00 6999.00 6999.00 6999.00
   8  6999.00 6999.00 6999.00 6999.00 6999.00 6999.00 6999.00 6999.00 6999.00 6999.00
   9  6999.00 6999.00 6999.00 6999.00 6999.00 6999.00 6999.00 6999.00 6999.00 6999.00
  10  6999.00 6999.00 6999.00 6999.00 6999.00 6999.00 6999.00 6999.00 6999.00 6999.00
  11  6999.00 6999.00 6999.00 6999.00 6999.00 6999.00 6999.00 6999.00 6999.00 6999.00
  12  6999.00 6999.00 6999.00 6999.00 6999.00 6999.00 6999.00 6999.00 6999.00 6999.00
  13  6999.00 6999.00 6999.00 6999.00 6999.00 6999.00 6999.00 6999.00 6999.00 6999.00
  14  6999.00 6999.00 6999.00 6999.00 6999.00 6999.00 6999.00 6999.00 6999.00 6999.00
  15  6999.00 6999.00 6999.00 6999.00 6999.00 6999.00 6999.00 6999.00 6999.00 6999.00
1
              HEAD IN LAYER   2 AT END OF TIME STEP    15 IN STRESS PERIOD    9
  -----------------------------------------------------------------------------

           1       2       3       4       5       6       7       8       9      10
 ...................................................................................
   1  1093.73 1088.96 6999.00 6999.00 6999.00 6999.00 6999.00 6999.00 6999.00 6999.00
   2  1088.33 1087.15 1080.43 6999.00 6999.00 1067.82 1067.09 1065.36 6999.00 6999.00
   3  6999.00 1075.88 1076.05 1071.80 1069.10 1067.19 1065.88 1063.80 6999.00 6999.00
   4  1061.90 1064.07 1065.24 1062.54 1060.81 1058.79 1058.15 1060.19 1058.07 6999.00
   5  1057.84 1055.83 1055.49 1054.94 1054.68 1054.77 1053.13 1053.37 1055.86 1057.81
   6  1053.72 1050.19 1048.82 1048.79 1049.22 1050.81 1050.34 1051.20 1052.65 1057.05
   7  1050.74 1045.15 1043.38 1043.54 1044.45 1046.68 1047.02 1048.05 1049.21 6999.00
   8  6999.00 1039.49 1038.41 1038.77 1039.83 1042.32 1042.77 1044.15 1045.37 6999.00
   9  6999.00 1033.58 1033.20 1033.86 1035.06 1037.57 1038.24 1038.45 1040.92 6999.00
  10  6999.00 1027.52 1027.87 1029.14 1030.63 1032.98 1035.12 1034.99 1037.41 1040.49
  11  6999.00 1019.90 1021.20 1024.50 1026.79 1029.48 1032.28 1032.73 1035.18 6999.00
  12  1003.25 1009.94 1014.26 1018.95 1022.79 1026.59 1029.77 1031.57 1034.80 6999.00
  13   996.17 1001.06 1007.66 1013.75 1019.51 1025.11 1029.50 1034.19 1036.74 6999.00
  14  6999.00 1007.10 1010.93 1015.88 1021.03 1025.93 1030.29 1035.23 1039.35 6999.00
  15  6999.00 6999.00 1018.67 1021.45 1025.08 1028.08 6999.00 6999.00 6999.00 6999.00

 HEAD WILL BE SAVED ON UNIT   58 AT END OF TIME STEP   15, STRESS PERIOD    9
1
  VOLUMETRIC BUDGET FOR ENTIRE MODEL AT END OF TIME STEP   15, STRESS PERIOD   9
  ------------------------------------------------------------------------------

     CUMULATIVE VOLUMES      L**3       RATES FOR THIS TIME STEP      L**3/T
     ------------------                 ------------------------

           IN:                                      IN:
           ---                                      ---
             STORAGE =   178926816.0000               STORAGE =           9.7809
       CONSTANT HEAD =           0.0000         CONSTANT HEAD =           0.0000
               WELLS =           0.0000                 WELLS =           0.0000
     HEAD DEP BOUNDS =     5073228.5000       HEAD DEP BOUNDS =           0.2147
      STREAM LEAKAGE =  1822140800.0000        STREAM LEAKAGE =          67.9680
       LAKE  SEEPAGE =           0.0000         LAKE  SEEPAGE =           0.0000
        UZF RECHARGE =   698470720.0000          UZF RECHARGE =           7.3796
               GW ET =           0.0000                 GW ET =           0.0000
     SURFACE LEAKAGE =           0.0000       SURFACE LEAKAGE =           0.0000

            TOTAL IN =  2704611584.0000              TOTAL IN =          85.3432

          OUT:                                     OUT:
          ----                                     ----
             STORAGE =  1605355392.0000               STORAGE =          38.0394
       CONSTANT HEAD =           0.0000         CONSTANT HEAD =           0.0000
               WELLS =   315360000.0000                 WELLS =          10.0000
     HEAD DEP BOUNDS =     7212071.0000       HEAD DEP BOUNDS =           0.3106
      STREAM LEAKAGE =   418903360.0000        STREAM LEAKAGE =          21.9113
       LAKE  SEEPAGE =           0.0000         LAKE  SEEPAGE =           0.0000
        UZF RECHARGE =           0.0000          UZF RECHARGE =           0.0000
               GW ET =   342845952.0000                 GW ET =          18.4634
     SURFACE LEAKAGE =    87189152.0000       SURFACE LEAKAGE =           1.2247

           TOTAL OUT =  2776866048.0000             TOTAL OUT =          89.9494

            IN - OUT =   -72254464.0000              IN - OUT =          -4.6062

 PERCENT DISCREPANCY =          -2.64     PERCENT DISCREPANCY =          -5.26






         TIME SUMMARY AT END OF TIME STEP   15 IN STRESS PERIOD    9
                    SECONDS     MINUTES      HOURS       DAYS        YEARS
                    -----------------------------------------------------------
   TIME STEP LENGTH 1.75200E+05  2920.0      48.667      2.0278     5.55175E-03
 STRESS PERIOD TIME 2.62800E+06  43800.      730.00      30.417     8.32763E-02
         TOTAL TIME 2.36520E+07 3.94200E+05  6570.0      273.75     0.74949    
1
1
                            STRESS PERIOD NO.   10, LENGTH =   2628000.    
                            -----------------------------------------------

                              NUMBER OF TIME STEPS =    15

                               MULTIPLIER FOR DELT =     1.000

                            INITIAL TIME STEP SIZE =   175200.0    

      0 WELLS

 REUSING NON-PARAMETER GHB CELLS FROM LAST STRESS PERIOD

      2 GHB CELLS

 REUSING STREAM SEGMENT DATA FROM LAST STRESS PERIOD



            AREAL INFILTRATION RATE
 READING ON UNIT   19 WITH FORMAT: (10F4.0)            

            1           2           3           4           5           6           7           8           9          10
 ........................................................................................................................
   1   2.0000E-09  4.0000E-09   0.000       0.000       0.000       0.000       0.000       0.000       0.000       0.000    
   2   4.0000E-09  2.0000E-09  4.0000E-09   0.000       0.000      1.6000E-08  1.6000E-08  1.0000E-08   0.000       0.000    
   3    0.000      1.0000E-08  2.0000E-09  2.0000E-09  1.6000E-08  1.6000E-08  1.0000E-08  1.0000E-08   0.000       0.000    
   4   1.6000E-08  1.0000E-08  2.0000E-09  2.0000E-09  2.0000E-09  2.0000E-09  2.0000E-09  2.0000E-09  4.0000E-09   0.000    
   5   1.6000E-08  1.0000E-08  2.0000E-09  2.0000E-09  2.0000E-09  2.0000E-09  2.0000E-09  2.0000E-09  2.0000E-09  2.0000E-09
   6   1.6000E-08  1.0000E-08  1.0000E-08  4.0000E-09  4.0000E-09  2.0000E-09  2.0000E-09  2.0000E-09  2.0000E-09  1.0000E-08
   7   1.6000E-08  1.0000E-08  1.0000E-08  4.0000E-09  4.0000E-09  2.0000E-09  2.0000E-09  4.0000E-09  4.0000E-09   0.000    
   8    0.000      1.0000E-08  1.0000E-08  4.0000E-09  4.0000E-09  2.0000E-09  2.0000E-09  4.0000E-09  1.0000E-08   0.000    
   9    0.000      1.0000E-08  1.0000E-08  4.0000E-09  4.0000E-09  2.0000E-09  2.0000E-09  4.0000E-09  1.0000E-08   0.000    
  10    0.000      1.0000E-08  1.0000E-08  4.0000E-09  4.0000E-09  2.0000E-09  2.0000E-09  4.0000E-09  1.0000E-08  1.6000E-08
  11    0.000      2.0000E-09  2.0000E-09  2.0000E-09  2.0000E-09  2.0000E-09  2.0000E-09  4.0000E-09  1.0000E-08   0.000    
  12   2.0000E-09  2.0000E-09  2.0000E-09  2.0000E-09  2.0000E-09  2.0000E-09  2.0000E-09  2.0000E-09  4.0000E-09   0.000    
  13   2.0000E-09  2.0000E-09  4.0000E-09  4.0000E-09  4.0000E-09  4.0000E-09  4.0000E-09  2.0000E-09  2.0000E-09   0.000    
  14    0.000      4.0000E-09  1.0000E-08  1.0000E-08  1.0000E-08  1.0000E-08  1.0000E-08  4.0000E-09  2.0000E-09   0.000    
  15    0.000       0.000      1.6000E-08  1.6000E-08  1.6000E-08  1.6000E-08   0.000       0.000       0.000       0.000    

USING ET RATE FROM PREVIOUS STRESS PERIOD. CURRENT PERIOD IS:      10

 USING ET EXTINCTION DEPTH FROM PREVIOUS STRESS PERIOD. CURRENT PERIOD IS:      10

 USING EXTINCTION WATER CONTENT FROM PREVIOUS STRESS PERIOD. CURRENT PERIOD IS:      10




 If any subsequent steady-state stress periods, min. and max. stages for each lake will be read in Record 9a.




 REUSING LAKE CONFIGURATION DATA FROM LAST STRESS PERIOD


 LAKE       PRECIP     EVAP     RUNOFF   WITHDRAW   BOTTOM     AREA
----------------------------------------------------------------------
   1     0.000E+00 4.000E-08 0.000E+00  0.000E+00 1.074E+03 2.500E+07




         C               INTERFACE CONDUCTANCES BETWEEN LAKE AND AQUIFER CELLS
   L     O          (IF TYPE = 6, CONDUCTANCE (L^2/T) IS BETWEEN AQUIFER CELL AND OVERLYING LAKE CELL.)
   A     L  L  T    (IF TYPE = 1 TO 4, CONDUCTANCES ARE PER UNIT SATURATED THICKNESS (L/T).)
   Y  R  U  A  Y
   E  O  M  K  P                        LAKEBED      C O N D U C T A N C E S
   R  W  N  E  E     DELTA Y   DELTA X  LEAKANCE   LAKEBED   AQUIFER  COMBINED
 _______________________________________________________________________________
   1  4  4  1  2    5.00E+03  5.00E+03  5.00E-02  2.50E+02  6.00E-03  6.00E-03
   1  3  5  1  3    5.00E+03  5.00E+03  5.00E-02  2.50E+02  1.20E-03  1.20E-03
   2  4  5  1  6    5.00E+03  5.00E+03  5.00E-02  1.25E+06  9.42E+00  9.42E+00
   1  5  5  1  4    5.00E+03  5.00E+03  5.00E-02  2.50E+02  6.00E-03  6.00E-03
   1  4  6  1  1    5.00E+03  5.00E+03  5.00E-02  2.50E+02  6.00E-03  6.00E-03
      LAKE     INFLOWING STREAM SEGMENT
         1                  9

 MAXIMUM NUMBER OF STREAMS INFLOWING TO A LAKE IS    1

      LAKE     OUTFLOWING STREAM SEGMENT
         1                 10

 MAXIMUM NUMBER OF STREAMS OUTFLOWING FROM A LAKE IS    1

 
 SOLVING FOR HEAD 
                                                   Max.-Head-Change                         Max.-Flux-Residual
  Residual-Control   Outer-Iter.   Inner-Iter.     Column Row Layer    Maximum-Head-Change  Column Row Layer    Maximum-Flux-Residual          L2-NORM 
          0                 1           2             4    7     2       0.7791095644E-01       4    7    2         0.2053741469E+01      0.7836171216E+01
          0                 2           2             5    4     2       0.6039975033E-02       5    4    2         0.1888310089E+00      0.5635630669E+00
          0                 3           1             5    4     2      -0.3488898821E-03       5    4    2        -0.1121993508E-01      0.2476397568E-01

    ------------------------------------------------
       NWT REQUIRED            3 OUTER ITERATIONS 
       AND A TOTAL OF          5 INNER ITERATIONS.
    ------------------------------------------------

 NO OUTPUT CONTROL FOR STRESS PERIOD   10   TIME STEP    1
 ..........LAKE  1 IS DRY..........
 
 SOLVING FOR HEAD 
                                                   Max.-Head-Change                         Max.-Flux-Residual
  Residual-Control   Outer-Iter.   Inner-Iter.     Column Row Layer    Maximum-Head-Change  Column Row Layer    Maximum-Flux-Residual          L2-NORM 
          0                 1           2             4    7     2       0.7668410269E-01       4    7    2         0.2024118170E+01      0.7724258798E+01
          0                 2           2             5    4     2       0.6146086824E-02       5    4    2         0.1918791207E+00      0.5625134282E+00
          0                 3           1             5    4     2      -0.3545568157E-03       5    4    2        -0.1139407470E-01      0.2527234428E-01

    ------------------------------------------------
       NWT REQUIRED            3 OUTER ITERATIONS 
       AND A TOTAL OF          5 INNER ITERATIONS.
    ------------------------------------------------

 NO OUTPUT CONTROL FOR STRESS PERIOD   10   TIME STEP    2
 ..........LAKE  1 IS DRY..........
 
 SOLVING FOR HEAD 
                                                   Max.-Head-Change                         Max.-Flux-Residual
  Residual-Control   Outer-Iter.   Inner-Iter.     Column Row Layer    Maximum-Head-Change  Column Row Layer    Maximum-Flux-Residual          L2-NORM 
          0                 1           2             4    7     2       0.7538266807E-01       4    7    2         0.1992085798E+01      0.7425660883E+01
          0                 2           2             5    4     2       0.5886118192E-02       5    4    2         0.1836076111E+00      0.5364816946E+00
          0                 3           1             5    4     2      -0.3397730729E-03       5    4    2        -0.1091004143E-01      0.2378440598E-01

    ------------------------------------------------
       NWT REQUIRED            3 OUTER ITERATIONS 
       AND A TOTAL OF          5 INNER ITERATIONS.
    ------------------------------------------------

 NO OUTPUT CONTROL FOR STRESS PERIOD   10   TIME STEP    3
 ..........LAKE  1 IS DRY..........
 
 SOLVING FOR HEAD 
                                                   Max.-Head-Change                         Max.-Flux-Residual
  Residual-Control   Outer-Iter.   Inner-Iter.     Column Row Layer    Maximum-Head-Change  Column Row Layer    Maximum-Flux-Residual          L2-NORM 
          0                 1           2             4    7     2       0.7398314990E-01       4    7    2         0.1956501157E+01      0.7181503781E+01
          0                 2           2             5    4     2       0.5668184442E-02       5    4    2         0.1767919135E+00      0.5182497277E+00
          0                 3           1             5    4     2      -0.3273907596E-03       5    4    2        -0.1051201391E-01      0.2278422449E-01

    ------------------------------------------------
       NWT REQUIRED            3 OUTER ITERATIONS 
       AND A TOTAL OF          5 INNER ITERATIONS.
    ------------------------------------------------

 NO OUTPUT CONTROL FOR STRESS PERIOD   10   TIME STEP    4
 ..........LAKE  1 IS DRY..........
 
 SOLVING FOR HEAD 
                                                   Max.-Head-Change                         Max.-Flux-Residual
  Residual-Control   Outer-Iter.   Inner-Iter.     Column Row Layer    Maximum-Head-Change  Column Row Layer    Maximum-Flux-Residual          L2-NORM 
          0                 1           2             4    7     2       0.7253776233E-01       4    7    2         0.1919119235E+01      0.7075072561E+01
          0                 2           2             5    4     2       0.5723799710E-02       5    4    2         0.1783930484E+00      0.5181102855E+00
          0                 3           1             5    4     2      -0.3303310997E-03       5    4    2        -0.1060284346E-01      0.2313814028E-01

    ------------------------------------------------
       NWT REQUIRED            3 OUTER ITERATIONS 
       AND A TOTAL OF          5 INNER ITERATIONS.
    ------------------------------------------------

 OUTPUT CONTROL FOR STRESS PERIOD   10   TIME STEP    5
    PRINT BUDGET
    SAVE BUDGET

  HEAD DEP BOUNDS   PERIOD   10   STEP     5
 BOUNDARY      1   LAYER   2   ROW    13   COL     1   RATE   -0.306145    
 BOUNDARY      2   LAYER   2   ROW    14   COL     9   RATE    0.214690    



 STREAM LISTING     PERIOD     10   STEP        5

 LAYER ROW COL. STREAM  RCH.  FLOW INTO     FLOW TO   FLOW OUT OF   OVRLND.     DIRECT     STREAM       STREAM     STREAM     STREAM   STREAMBED  STREAMBED
                SEG.NO.  NO.  STRM. RCH.    AQUIFER    STRM. RCH.    RUNOFF     PRECIP       ET          HEAD       DEPTH      WIDTH   CONDCTNC.   GRADIENT

   2    1    1     1     1    1.1093E+02  1.3454E+00   1.0958E+02  0.000E+00  0.000E+00  0.000E+00  1.09491E+03  1.867E+00  2.282E+01  1.027E+00  4.367E-01
   2    2    2     1     2    1.0958E+02  4.6199E+00   1.0496E+02  0.000E+00  0.000E+00  0.000E+00  1.08991E+03  1.848E+00  2.259E+01  1.581E+00  9.739E-01
   2    3    3     1     3    1.0496E+02  6.3935E+00   9.8568E+01  0.000E+00  0.000E+00  0.000E+00  1.08423E+03  1.812E+00  2.215E+01  1.329E+00  1.604E+00
   2    3    4     1     4    9.8568E+01  5.7570E+00   9.2811E+01  0.000E+00  0.000E+00  0.000E+00  1.07919E+03  1.784E+00  2.168E+01  1.203E+00  1.595E+00
   2    4    5     2     1    8.2811E+01  0.0000E+00   8.2811E+01  0.000E+00  0.000E+00  0.000E+00  1.07437E+03  2.439E+00  1.200E+01  7.800E-01  1.813E+00
   2    5    6     2     2    8.2811E+01  3.2225E+00   7.9589E+01  0.000E+00  0.000E+00  0.000E+00  1.06888E+03  2.371E+00  1.200E+01  6.000E-01  1.790E+00
   2    6    6     2     3    7.9589E+01  3.1866E+00   7.6402E+01  0.000E+00  0.000E+00  0.000E+00  1.06410E+03  2.311E+00  1.200E+01  6.000E-01  1.770E+00
   2    7    6     2     4    7.6402E+01  3.1506E+00   7.3251E+01  0.000E+00  0.000E+00  0.000E+00  1.05933E+03  2.251E+00  1.200E+01  6.000E-01  1.750E+00
   2    8    6     2     5    7.3251E+01  3.1143E+00   7.0137E+01  0.000E+00  0.000E+00  0.000E+00  1.05455E+03  2.190E+00  1.200E+01  6.000E-01  1.730E+00
   2    3    5     3     1    1.0000E+01  2.8252E+00   7.1748E+00  0.000E+00  0.000E+00  0.000E+00  1.07555E+03  1.909E+00  9.636E+00  7.227E-01  1.955E+00
   2    3    6     3     2    7.1748E+00  2.4905E+00   4.6843E+00  0.000E+00  0.000E+00  0.000E+00  1.07264E+03  1.727E+00  8.909E+00  6.682E-01  1.864E+00
   2    3    7     3     3    4.6843E+00  1.9718E+00   2.7125E+00  0.000E+00  0.000E+00  0.000E+00  1.06987E+03  1.555E+00  8.218E+00  5.547E-01  1.777E+00
   2    4    8     3     4    2.7125E+00  2.2567E+00   4.5579E-01  0.000E+00  0.000E+00  0.000E+00  1.06682E+03  1.364E+00  7.455E+00  6.709E-01  1.682E+00
   2    5    8     3     5    4.5579E-01  4.5579E-01   0.0000E+00  0.000E+00  0.000E+00  0.000E+00  1.06362E+03  0.000E+00  6.655E+00  4.991E-01  1.582E+00
   2    6    8     3     6    0.0000E+00  0.0000E+00   0.0000E+00  0.000E+00  0.000E+00  0.000E+00  1.06055E+03  0.000E+00  6.145E+00  1.844E-01  1.000E+00
   2    5   10     4     1    1.0000E+01  9.0525E-01   9.0947E+00  0.000E+00  0.000E+00  0.000E+00  1.07835E+03  6.210E-01  1.000E+01  2.500E-01  1.207E+00
   2    5    9     4     2    9.0947E+00  1.7835E+00   7.3113E+00  0.000E+00  0.000E+00  0.000E+00  1.07148E+03  5.670E-01  1.000E+01  5.000E-01  1.189E+00
   2    6    8     4     3    7.3113E+00  1.2257E+00   6.0855E+00  0.000E+00  0.000E+00  0.000E+00  1.06368E+03  5.021E-01  1.000E+01  3.500E-01  1.167E+00
   2    6    8     5     1    6.0855E+00  1.4716E+00   4.6139E+00  0.000E+00  0.000E+00  0.000E+00  1.05854E+03  5.396E-01  1.039E+01  4.158E-01  1.180E+00
   2    7    7     5     2    4.6139E+00  1.4897E+00   3.1242E+00  0.000E+00  0.000E+00  0.000E+00  1.05398E+03  4.817E-01  8.557E+00  4.279E-01  1.161E+00
   2    8    7     5     3    3.1242E+00  8.2855E-01   2.2957E+00  0.000E+00  0.000E+00  0.000E+00  1.04968E+03  4.253E-01  6.911E+00  2.419E-01  1.142E+00
   2    8    6     5     4    2.2957E+00  4.9455E-01   1.8011E+00  0.000E+00  0.000E+00  0.000E+00  1.04664E+03  3.856E-01  5.843E+00  1.461E-01  1.129E+00
   2    9    6     6     1    7.1938E+01  3.1134E+00   6.8825E+01  0.000E+00  0.000E+00  0.000E+00  1.04492E+03  2.189E+00  1.200E+01  6.000E-01  1.730E+00
   2   10    7     6     2    6.8825E+01  3.0762E+00   6.5749E+01  0.000E+00  0.000E+00  0.000E+00  1.04031E+03  2.127E+00  1.200E+01  6.000E-01  1.709E+00
   2   11    7     6     3    6.5749E+01  2.0843E+00   6.3664E+01  0.000E+00  0.000E+00  0.000E+00  1.03571E+03  2.074E+00  1.200E+01  6.000E-01  1.158E+00
   2   12    7     6     4    6.3664E+01  8.6862E-01   6.2796E+01  0.000E+00  0.000E+00  0.000E+00  1.03113E+03  2.044E+00  1.200E+01  6.000E-01  4.826E-01
   2   13    7     6     5    6.2796E+01 -3.6380E-01   6.3160E+01  0.000E+00  0.000E+00  0.000E+00  1.02795E+03  2.039E+00  1.200E+01  2.400E-01 -5.053E-01
   2   14    9     7     1    1.5000E+02  2.8741E+00   1.4713E+02  0.000E+00  0.000E+00  0.000E+00  1.03986E+03  2.284E+00  5.528E+01  5.591E+00  1.714E-01
   2   13    8     7     2    1.4713E+02  3.5609E+00   1.4357E+02  0.000E+00  0.000E+00  0.000E+00  1.03477E+03  2.266E+00  5.520E+01  6.141E+00  1.933E-01
   2   13    7     7     3    1.4357E+02  1.1691E+00   1.4240E+02  0.000E+00  0.000E+00  0.000E+00  1.02967E+03  2.254E+00  5.514E+01  5.576E+00  6.988E-02
   2   13    6     8     1    2.0556E+02  1.5281E-01   2.0554E+02  1.391E-01  0.000E+00  0.000E+00  1.02502E+03  3.145E+00  4.561E+01  4.648E+00  1.096E-02
   2   13    5     8     2    2.0554E+02 -2.9656E+00   2.0865E+02  1.391E-01  0.000E+00  0.000E+00  1.01878E+03  3.154E+00  4.574E+01  4.661E+00 -2.121E-01
   2   13    4     8     3    2.0865E+02 -5.4162E+00   2.1420E+02  1.391E-01  0.000E+00  0.000E+00  1.01255E+03  3.180E+00  4.610E+01  4.698E+00 -3.843E-01
   2   13    3     8     4    2.1420E+02 -6.0544E+00   2.2040E+02  1.391E-01  0.000E+00  0.000E+00  1.00634E+03  3.213E+00  4.659E+01  4.748E+00 -4.251E-01
   2   13    2     8     5    2.2040E+02 -3.9426E+00   2.2448E+02  1.391E-01  0.000E+00  0.000E+00  1.00012E+03  3.242E+00  4.701E+01  4.790E+00 -2.744E-01
   2   13    1     8     6    2.2448E+02 -2.6615E+00   2.2722E+02  8.347E-02  0.000E+00  0.000E+00  9.95136E+02  3.261E+00  4.728E+01  2.891E+00 -3.069E-01
   2    4    5     9     1    0.0000E+00  0.0000E+00   0.0000E+00  0.000E+00  0.000E+00  0.000E+00  1.06000E+03  1.776E-04  2.000E+01  2.000E-03 -2.620E-01
   2    4    5    10     1    0.0000E+00  0.0000E+00   0.0000E+00  0.000E+00  0.000E+00  0.000E+00  1.08000E+03  0.000E+00  2.000E+01  2.000E-03  1.000E+00



 ..........LAKE  1 IS DRY..........

     SECTIONS OF THE LAKE BOTTOM HAVE BECOME DRY.  THE DRYSECTIONS
     LIE ABOVE THE FOLLOWING  1 AQUIFER CELLS (LAYER,ROW,COLUMN):
     (  2,  4,  5)  (

 PERIOD    10     TIME STEP     5     TIME STEP LENGTH  1.7520E+05
 PERIOD TIME  8.7600E+05     TOTAL SIMULATION TIME  2.4528E+07


                 HYDROLOGIC BUDGET SUMMARIES FOR SIMULATED LAKES
     (ALL FLUID FLUXES ARE VOLUMES ADDED TO THE LAKE DURING PRESENT TIME STEP)
     ----------------------------------------------------------------------------------------
 LAKE    STAGE         VOLUME     VOL. CHANGE      PRECIP     EVAPORATION    SPECIFIED RUNOFF     COMPUTED RUNOFF    TOTAL RUNOFF
   1  1.074500E+03  0.000000E+00  0.000000E+00  0.000000E+00  0.000000E+00   0.000000E+00          0.000000E+00      0.000000E+00

            GROUND WATER            SURFACE WATER        WATER          UZF INFIL.
 LAKE    INFLOW     OUTFLOW      INFLOW     OUTFLOW       USE        FROM LAKE
   1  0.0000E+00  0.0000E+00  0.0000E+00  0.0000E+00  0.0000E+00       0.0000E+00

      CONNECTED LAKE   TIME-STEP         STAGE-CHANGE          PERCENT
 LAKE    INFLUX      SURFACE AREA   TIME STEP  CUMULATIVE    DISCREPANCY
   1   0.0000E+00     0.0000E+00  -1.3306E-03  7.4458E-04       0.000
 --------------------------------------------------------------------------------



            CUMULATIVE HYDROLOGIC BUDGET SUMMARIES FOR SIMULATED LAKES
     (ALL FLUID FLUXES ARE SUMS OF VOLUMES ADDED TO THE LAKE SINCE INITIAL TIME)
     ---------------------------------------------------------------------------
 LAKE       PRECIP       EVAP     SPECIFIED RUNOFF   COMPUTED RUNOFF   TOTAL RUNOFF
   1     0.0000E+00  1.6028E+06       0.0000E+00       0.0000E+00       0.0000E+00

            GROUND WATER            SURFACE WATER       UZF INFIL.
 LAKE    INFLOW     OUTFLOW      INFLOW     OUTFLOW     FROM LAKE
   1  0.0000E+00  0.0000E+00  1.9325E+08  4.8784E+07    1.4286E+08

         WATER    CONNECTED LAKE   CHANGE       PERCENT
 LAKE     USE         INFLUX       IN VOL.    DISCREPANCY
   1   0.0000E+00   0.0000E+00   0.0000E+00     -0.000
 --------------------------------------------------------------------------------

 UBDSV3 SAVING "           GW ET" ON UNIT  61 AT TIME STEP     5, STRESS PERIOD  10
 UBDSV3 SAVING "    UZF RECHARGE" ON UNIT  61 AT TIME STEP     5, STRESS PERIOD  10
 UBDSV3 SAVING " SURFACE LEAKAGE" ON UNIT  61 AT TIME STEP     5, STRESS PERIOD  10
 UBDSV3 SAVING "       HORT+DUNN" ON UNIT  61 AT TIME STEP     5, STRESS PERIOD  10
 UBDSV3 SAVING "  STORAGE CHANGE" ON UNIT  61 AT TIME STEP     5, STRESS PERIOD  10


UNSATURATED ZONE PACKAGE VOLUMETRIC BUDGET FOR  TIME STEP     5 STRESS PERIOD   10
  ------------------------------------------------------------------------------



     CUMULATIVE VOLUMES      L**3       RATES FOR THIS TIME STEP      L**3/T
     ------------------                 ------------------------

           IN:                                      IN:
           ---                                      ---
        INFILTRATION =  1578087945.5820          INFILTRATION =          16.8680

          OUT:                                     OUT:
          ----                                     ----
              UZF ET =  1469169159.8839                UZF ET =          26.6019
        UZF RECHARGE =   705025531.5692          UZF RECHARGE =           7.1965

            IN - OUT =  -596106745.8711              IN - OUT =         -16.9304

          STORAGE:                                 STORAGE:
          --------                                 --------
      STORAGE CHANGE =  -596117084.3401        STORAGE CHANGE =         -16.9279

 PERCENT DISCREPANCY IS DIFFERENCE BETWEEN IN-OUT MINUS CHANGE IN STORAGE
 DIVIDED BY THE AVERAGE OF IN AND OUT TIMES 100

 PERCENT DISCREPANCY =           0.00     PERCENT DISCREPANCY =          -0.01






1
  VOLUMETRIC BUDGET FOR ENTIRE MODEL AT END OF TIME STEP    5, STRESS PERIOD  10
  ------------------------------------------------------------------------------

     CUMULATIVE VOLUMES      L**3       RATES FOR THIS TIME STEP      L**3/T
     ------------------                 ------------------------

           IN:                                      IN:
           ---                                      ---
             STORAGE =   186389136.0000               STORAGE =           7.9870
       CONSTANT HEAD =           0.0000         CONSTANT HEAD =           0.0000
               WELLS =           0.0000                 WELLS =           0.0000
     HEAD DEP BOUNDS =     5261287.5000       HEAD DEP BOUNDS =           0.2147
      STREAM LEAKAGE =  1880597504.0000        STREAM LEAKAGE =          65.8880
       LAKE  SEEPAGE =           0.0000         LAKE  SEEPAGE =           0.0000
        UZF RECHARGE =   705025344.0000          UZF RECHARGE =           7.1965
               GW ET =           0.0000                 GW ET =           0.0000
     SURFACE LEAKAGE =           0.0000       SURFACE LEAKAGE =           0.0000

            TOTAL IN =  2777273344.0000              TOTAL IN =          81.2862

          OUT:                                     OUT:
          ----                                     ----
             STORAGE =  1645732736.0000               STORAGE =          44.4790
       CONSTANT HEAD =           0.0000         CONSTANT HEAD =           0.0000
               WELLS =   315360000.0000                 WELLS =           0.0000
     HEAD DEP BOUNDS =     7481731.0000       HEAD DEP BOUNDS =           0.3061
      STREAM LEAKAGE =   437757696.0000        STREAM LEAKAGE =          21.4040
       LAKE  SEEPAGE =           0.0000         LAKE  SEEPAGE =           0.0000
        UZF RECHARGE =           0.0000          UZF RECHARGE =           0.0000
               GW ET =   359140640.0000                 GW ET =          18.7393
     SURFACE LEAKAGE =    87975496.0000       SURFACE LEAKAGE =           0.7468

           TOTAL OUT =  2853448192.0000             TOTAL OUT =          85.6753

            IN - OUT =   -76174848.0000              IN - OUT =          -4.3891

 PERCENT DISCREPANCY =          -2.71     PERCENT DISCREPANCY =          -5.26






         TIME SUMMARY AT END OF TIME STEP    5 IN STRESS PERIOD   10
                    SECONDS     MINUTES      HOURS       DAYS        YEARS
                    -----------------------------------------------------------
   TIME STEP LENGTH 1.75200E+05  2920.0      48.667      2.0278     5.55175E-03
 STRESS PERIOD TIME 8.76000E+05  14600.      243.33      10.139     2.77588E-02
         TOTAL TIME 2.45280E+07 4.08800E+05  6813.3      283.89     0.77725    
1
 
 SOLVING FOR HEAD 
                                                   Max.-Head-Change                         Max.-Flux-Residual
  Residual-Control   Outer-Iter.   Inner-Iter.     Column Row Layer    Maximum-Head-Change  Column Row Layer    Maximum-Flux-Residual          L2-NORM 
          0                 1           2             4    3     2      -0.7394819359E-01       4    3    2        -0.2042857532E+01      0.7663788245E+01
          0                 2           2             4    3     2       0.6996403444E-02       5    4    2         0.2150140913E+00      0.6063615741E+00
          0                 3           1             5    4     2      -0.3973912630E-03       5    4    2        -0.1274073990E-01      0.2958345372E-01

    ------------------------------------------------
       NWT REQUIRED            3 OUTER ITERATIONS 
       AND A TOTAL OF          5 INNER ITERATIONS.
    ------------------------------------------------

 NO OUTPUT CONTROL FOR STRESS PERIOD   10   TIME STEP    6
 ..........LAKE  1 IS DRY..........
 
 SOLVING FOR HEAD 
                                                   Max.-Head-Change                         Max.-Flux-Residual
  Residual-Control   Outer-Iter.   Inner-Iter.     Column Row Layer    Maximum-Head-Change  Column Row Layer    Maximum-Flux-Residual          L2-NORM 
          0                 1           2             4    3     2      -0.6989455758E-01       4    3    2        -0.1928029792E+01      0.7309045305E+01
          0                 2           2             4    3     2       0.6615662736E-02       5    4    2         0.2039716372E+00      0.5754253777E+00
          0                 3           1             5    4     2      -0.3774646841E-03       5    4    2        -0.1209175511E-01      0.2789251094E-01

    ------------------------------------------------
       NWT REQUIRED            3 OUTER ITERATIONS 
       AND A TOTAL OF          5 INNER ITERATIONS.
    ------------------------------------------------

 NO OUTPUT CONTROL FOR STRESS PERIOD   10   TIME STEP    7
 ..........LAKE  1 IS DRY..........
 
 SOLVING FOR HEAD 
                                                   Max.-Head-Change                         Max.-Flux-Residual
  Residual-Control   Outer-Iter.   Inner-Iter.     Column Row Layer    Maximum-Head-Change  Column Row Layer    Maximum-Flux-Residual          L2-NORM 
          0                 1           2             4    7     2       0.6839758803E-01       4    3    2        -0.1819830810E+01      0.7009536810E+01
          0                 2           2             5    4     2       0.6286474334E-02       5    4    2         0.1948118125E+00      0.5482617026E+00
          0                 3           1             5    4     2      -0.3609652986E-03       5    4    2        -0.1155153265E-01      0.2637108882E-01

    ------------------------------------------------
       NWT REQUIRED            3 OUTER ITERATIONS 
       AND A TOTAL OF          5 INNER ITERATIONS.
    ------------------------------------------------

 NO OUTPUT CONTROL FOR STRESS PERIOD   10   TIME STEP    8
 ..........LAKE  1 IS DRY..........
 
 SOLVING FOR HEAD 
                                                   Max.-Head-Change                         Max.-Flux-Residual
  Residual-Control   Outer-Iter.   Inner-Iter.     Column Row Layer    Maximum-Head-Change  Column Row Layer    Maximum-Flux-Residual          L2-NORM 
          0                 1           2             4    3     2      -0.8106745680E-01       4    3    2        -0.2227127796E+01      0.7274000745E+01
          0                 2           2             4    3     2       0.7671638918E-02       4    3    2         0.2183888902E+00      0.5914040095E+00
          0                 3           1             4    3     2      -0.4296148709E-03       4    3    2        -0.1268369107E-01      0.2951851683E-01

    ------------------------------------------------
       NWT REQUIRED            3 OUTER ITERATIONS 
       AND A TOTAL OF          5 INNER ITERATIONS.
    ------------------------------------------------

 NO OUTPUT CONTROL FOR STRESS PERIOD   10   TIME STEP    9
 ..........LAKE  1 IS DRY..........
 
 SOLVING FOR HEAD 
                                                   Max.-Head-Change                         Max.-Flux-Residual
  Residual-Control   Outer-Iter.   Inner-Iter.     Column Row Layer    Maximum-Head-Change  Column Row Layer    Maximum-Flux-Residual          L2-NORM 
          0                 1           2             4    3     2      -0.8385757143E-01       4    3    2        -0.2299848691E+01      0.7188957946E+01
          0                 2           2             4    3     2       0.7961408802E-02       4    3    2         0.2263755226E+00      0.5904999130E+00
          0                 3           1             4    3     2      -0.4484081368E-03       4    3    2        -0.1324075076E-01      0.2978395633E-01

    ------------------------------------------------
       NWT REQUIRED            3 OUTER ITERATIONS 
       AND A TOTAL OF          5 INNER ITERATIONS.
    ------------------------------------------------

 OUTPUT CONTROL FOR STRESS PERIOD   10   TIME STEP   10
    PRINT BUDGET
    SAVE BUDGET

  HEAD DEP BOUNDS   PERIOD   10   STEP    10
 BOUNDARY      1   LAYER   2   ROW    13   COL     1   RATE   -0.301434    
 BOUNDARY      2   LAYER   2   ROW    14   COL     9   RATE    0.214789    



 STREAM LISTING     PERIOD     10   STEP       10

 LAYER ROW COL. STREAM  RCH.  FLOW INTO     FLOW TO   FLOW OUT OF   OVRLND.     DIRECT     STREAM       STREAM     STREAM     STREAM   STREAMBED  STREAMBED
                SEG.NO.  NO.  STRM. RCH.    AQUIFER    STRM. RCH.    RUNOFF     PRECIP       ET          HEAD       DEPTH      WIDTH   CONDCTNC.   GRADIENT

   2    1    1     1     1    6.1000E+01  9.4331E-01   6.0057E+01  0.000E+00  0.000E+00  0.000E+00  1.09458E+03  1.534E+00  1.835E+01  8.259E-01  3.807E-01
   2    2    2     1     2    6.0057E+01  3.5669E+00   5.6490E+01  0.000E+00  0.000E+00  0.000E+00  1.08957E+03  1.507E+00  1.808E+01  1.265E+00  9.397E-01
   2    3    3     1     3    5.6490E+01  4.6909E+00   5.1799E+01  0.000E+00  0.000E+00  0.000E+00  1.08387E+03  1.454E+00  1.755E+01  1.053E+00  1.485E+00
   2    3    4     1     4    5.1799E+01  4.1412E+00   4.7658E+01  0.000E+00  0.000E+00  0.000E+00  1.07881E+03  1.398E+00  1.696E+01  9.416E-01  1.466E+00
   2    4    5     2     1    3.7658E+01  0.0000E+00   3.7658E+01  0.000E+00  0.000E+00  0.000E+00  1.07343E+03  1.500E+00  1.200E+01  7.800E-01  1.500E+00
   2    5    6     2     2    3.7658E+01  2.6531E+00   3.5005E+01  0.000E+00  0.000E+00  0.000E+00  1.06793E+03  1.422E+00  1.200E+01  6.000E-01  1.474E+00
   2    6    6     2     3    3.5005E+01  2.6113E+00   3.2393E+01  0.000E+00  0.000E+00  0.000E+00  1.06314E+03  1.352E+00  1.200E+01  6.000E-01  1.451E+00
   2    7    6     2     4    3.2393E+01  2.5688E+00   2.9824E+01  0.000E+00  0.000E+00  0.000E+00  1.05836E+03  1.281E+00  1.200E+01  6.000E-01  1.427E+00
   2    8    6     2     5    2.9824E+01  2.5254E+00   2.7299E+01  0.000E+00  0.000E+00  0.000E+00  1.05357E+03  1.209E+00  1.200E+01  6.000E-01  1.403E+00
   2    3    5     3     1    1.0000E+01  2.8252E+00   7.1748E+00  0.000E+00  0.000E+00  0.000E+00  1.07555E+03  1.909E+00  9.636E+00  7.227E-01  1.955E+00
   2    3    6     3     2    7.1748E+00  2.4905E+00   4.6843E+00  0.000E+00  0.000E+00  0.000E+00  1.07264E+03  1.727E+00  8.909E+00  6.682E-01  1.864E+00
   2    3    7     3     3    4.6843E+00  1.9718E+00   2.7125E+00  0.000E+00  0.000E+00  0.000E+00  1.06987E+03  1.555E+00  8.218E+00  5.547E-01  1.777E+00
   2    4    8     3     4    2.7125E+00  2.2567E+00   4.5579E-01  0.000E+00  0.000E+00  0.000E+00  1.06682E+03  1.364E+00  7.455E+00  6.709E-01  1.682E+00
   2    5    8     3     5    4.5579E-01  4.5579E-01   0.0000E+00  0.000E+00  0.000E+00  0.000E+00  1.06362E+03  0.000E+00  6.655E+00  4.991E-01  1.582E+00
   2    6    8     3     6    0.0000E+00  0.0000E+00   0.0000E+00  0.000E+00  0.000E+00  0.000E+00  1.06055E+03  0.000E+00  6.145E+00  1.844E-01  1.000E+00
   2    5   10     4     1    1.0000E+01  9.0525E-01   9.0947E+00  0.000E+00  0.000E+00  0.000E+00  1.07835E+03  6.210E-01  1.000E+01  2.500E-01  1.207E+00
   2    5    9     4     2    9.0947E+00  1.7835E+00   7.3113E+00  0.000E+00  0.000E+00  0.000E+00  1.07148E+03  5.670E-01  1.000E+01  5.000E-01  1.189E+00
   2    6    8     4     3    7.3113E+00  1.2257E+00   6.0855E+00  0.000E+00  0.000E+00  0.000E+00  1.06368E+03  5.021E-01  1.000E+01  3.500E-01  1.167E+00
   2    6    8     5     1    6.0855E+00  1.4716E+00   4.6139E+00  0.000E+00  0.000E+00  0.000E+00  1.05854E+03  5.396E-01  1.039E+01  4.158E-01  1.180E+00
   2    7    7     5     2    4.6139E+00  1.4897E+00   3.1242E+00  0.000E+00  0.000E+00  0.000E+00  1.05398E+03  4.817E-01  8.557E+00  4.279E-01  1.161E+00
   2    8    7     5     3    3.1242E+00  8.2855E-01   2.2957E+00  0.000E+00  0.000E+00  0.000E+00  1.04968E+03  4.253E-01  6.911E+00  2.419E-01  1.142E+00
   2    8    6     5     4    2.2957E+00  4.9455E-01   1.8011E+00  0.000E+00  0.000E+00  0.000E+00  1.04664E+03  3.856E-01  5.843E+00  1.461E-01  1.129E+00
   2    9    6     6     1    2.9100E+01  2.5208E+00   2.6579E+01  0.000E+00  0.000E+00  0.000E+00  1.04393E+03  1.201E+00  1.200E+01  6.000E-01  1.400E+00
   2   10    7     6     2    2.6579E+01  2.4754E+00   2.4104E+01  0.000E+00  0.000E+00  0.000E+00  1.03931E+03  1.126E+00  1.200E+01  6.000E-01  1.375E+00
   2   11    7     6     3    2.4104E+01  1.5329E+00   2.2571E+01  0.000E+00  0.000E+00  0.000E+00  1.03470E+03  1.063E+00  1.200E+01  6.000E-01  8.516E-01
   2   12    7     6     4    2.2571E+01  3.3734E-01   2.2234E+01  0.000E+00  0.000E+00  0.000E+00  1.03012E+03  1.032E+00  1.200E+01  6.000E-01  1.874E-01
   2   13    7     6     5    2.2234E+01 -5.9241E-01   2.2826E+01  0.000E+00  0.000E+00  0.000E+00  1.02695E+03  1.036E+00  1.200E+01  2.400E-01 -8.228E-01
   2   14    9     7     1    1.5000E+02  2.8884E+00   1.4711E+02  0.000E+00  0.000E+00  0.000E+00  1.03986E+03  2.284E+00  5.528E+01  5.591E+00  1.722E-01
   2   13    8     7     2    1.4711E+02  3.5965E+00   1.4352E+02  0.000E+00  0.000E+00  0.000E+00  1.03477E+03  2.266E+00  5.520E+01  6.141E+00  1.952E-01
   2   13    7     7     3    1.4352E+02  1.4401E+00   1.4208E+02  0.000E+00  0.000E+00  0.000E+00  1.02967E+03  2.253E+00  5.514E+01  5.576E+00  8.609E-02
   2   13    6     8     1    1.6490E+02 -3.0404E-01   1.6527E+02  6.156E-02  0.000E+00  0.000E+00  1.02477E+03  2.896E+00  4.200E+01  4.280E+00 -2.368E-02
   2   13    5     8     2    1.6527E+02 -3.2996E+00   1.6863E+02  6.156E-02  0.000E+00  0.000E+00  1.01853E+03  2.909E+00  4.218E+01  4.298E+00 -2.559E-01
   2   13    4     8     3    1.6863E+02 -5.8017E+00   1.7449E+02  6.156E-02  0.000E+00  0.000E+00  1.01231E+03  2.939E+00  4.262E+01  4.343E+00 -4.453E-01
   2   13    3     8     4    1.7449E+02 -6.3597E+00   1.8091E+02  6.156E-02  0.000E+00  0.000E+00  1.00610E+03  2.979E+00  4.320E+01  4.402E+00 -4.816E-01
   2   13    2     8     5    1.8091E+02 -4.1120E+00   1.8509E+02  6.156E-02  0.000E+00  0.000E+00  9.99888E+02  3.013E+00  4.369E+01  4.452E+00 -3.079E-01
   2   13    1     8     6    1.8509E+02 -2.7516E+00   1.8787E+02  3.694E-02  0.000E+00  0.000E+00  9.94910E+02  3.035E+00  4.400E+01  2.690E+00 -3.409E-01
   2    4    5     9     1    0.0000E+00  0.0000E+00   0.0000E+00  0.000E+00  0.000E+00  0.000E+00  1.06000E+03  1.683E-04  2.000E+01  2.000E-03 -2.394E-01
   2    4    5    10     1    0.0000E+00  0.0000E+00   0.0000E+00  0.000E+00  0.000E+00  0.000E+00  1.08000E+03  0.000E+00  2.000E+01  2.000E-03  1.000E+00



 ..........LAKE  1 IS DRY..........

     SECTIONS OF THE LAKE BOTTOM HAVE BECOME DRY.  THE DRYSECTIONS
     LIE ABOVE THE FOLLOWING  1 AQUIFER CELLS (LAYER,ROW,COLUMN):
     (  2,  4,  5)  (

 PERIOD    10     TIME STEP    10     TIME STEP LENGTH  1.7520E+05
 PERIOD TIME  1.7520E+06     TOTAL SIMULATION TIME  2.5404E+07


                 HYDROLOGIC BUDGET SUMMARIES FOR SIMULATED LAKES
     (ALL FLUID FLUXES ARE VOLUMES ADDED TO THE LAKE DURING PRESENT TIME STEP)
     ----------------------------------------------------------------------------------------
 LAKE    STAGE         VOLUME     VOL. CHANGE      PRECIP     EVAPORATION    SPECIFIED RUNOFF     COMPUTED RUNOFF    TOTAL RUNOFF
   1  1.074500E+03  0.000000E+00  0.000000E+00  0.000000E+00  0.000000E+00   0.000000E+00          0.000000E+00      0.000000E+00

            GROUND WATER            SURFACE WATER        WATER          UZF INFIL.
 LAKE    INFLOW     OUTFLOW      INFLOW     OUTFLOW       USE        FROM LAKE
   1  0.0000E+00  0.0000E+00  0.0000E+00  0.0000E+00  0.0000E+00       0.0000E+00

      CONNECTED LAKE   TIME-STEP         STAGE-CHANGE          PERCENT
 LAKE    INFLUX      SURFACE AREA   TIME STEP  CUMULATIVE    DISCREPANCY
   1   0.0000E+00     0.0000E+00  -1.3306E-03  7.4458E-04       0.000
 --------------------------------------------------------------------------------



            CUMULATIVE HYDROLOGIC BUDGET SUMMARIES FOR SIMULATED LAKES
     (ALL FLUID FLUXES ARE SUMS OF VOLUMES ADDED TO THE LAKE SINCE INITIAL TIME)
     ---------------------------------------------------------------------------
 LAKE       PRECIP       EVAP     SPECIFIED RUNOFF   COMPUTED RUNOFF   TOTAL RUNOFF
   1     0.0000E+00  1.6028E+06       0.0000E+00       0.0000E+00       0.0000E+00

            GROUND WATER            SURFACE WATER       UZF INFIL.
 LAKE    INFLOW     OUTFLOW      INFLOW     OUTFLOW     FROM LAKE
   1  0.0000E+00  0.0000E+00  1.9325E+08  4.8784E+07    1.4286E+08

         WATER    CONNECTED LAKE   CHANGE       PERCENT
 LAKE     USE         INFLUX       IN VOL.    DISCREPANCY
   1   0.0000E+00   0.0000E+00   0.0000E+00     -0.000
 --------------------------------------------------------------------------------

 UBDSV3 SAVING "           GW ET" ON UNIT  61 AT TIME STEP    10, STRESS PERIOD  10
 UBDSV3 SAVING "    UZF RECHARGE" ON UNIT  61 AT TIME STEP    10, STRESS PERIOD  10
 UBDSV3 SAVING " SURFACE LEAKAGE" ON UNIT  61 AT TIME STEP    10, STRESS PERIOD  10
 UBDSV3 SAVING "       HORT+DUNN" ON UNIT  61 AT TIME STEP    10, STRESS PERIOD  10
 UBDSV3 SAVING "  STORAGE CHANGE" ON UNIT  61 AT TIME STEP    10, STRESS PERIOD  10


UNSATURATED ZONE PACKAGE VOLUMETRIC BUDGET FOR  TIME STEP    10 STRESS PERIOD   10
  ------------------------------------------------------------------------------



     CUMULATIVE VOLUMES      L**3       RATES FOR THIS TIME STEP      L**3/T
     ------------------                 ------------------------

           IN:                                      IN:
           ---                                      ---
        INFILTRATION =  1592871057.1216          INFILTRATION =          16.8801

          OUT:                                     OUT:
          ----                                     ----
              UZF ET =  1491547765.0838                UZF ET =          24.8541
        UZF RECHARGE =   710803061.2952          UZF RECHARGE =           6.3340

            IN - OUT =  -609479769.2574              IN - OUT =         -14.3079

          STORAGE:                                 STORAGE:
          --------                                 --------
      STORAGE CHANGE =  -609488022.6724        STORAGE CHANGE =         -14.3062

 PERCENT DISCREPANCY IS DIFFERENCE BETWEEN IN-OUT MINUS CHANGE IN STORAGE
 DIVIDED BY THE AVERAGE OF IN AND OUT TIMES 100

 PERCENT DISCREPANCY =           0.00     PERCENT DISCREPANCY =          -0.01






1
  VOLUMETRIC BUDGET FOR ENTIRE MODEL AT END OF TIME STEP   10, STRESS PERIOD  10
  ------------------------------------------------------------------------------

     CUMULATIVE VOLUMES      L**3       RATES FOR THIS TIME STEP      L**3/T
     ------------------                 ------------------------

           IN:                                      IN:
           ---                                      ---
             STORAGE =   197549488.0000               STORAGE =          13.4136
       CONSTANT HEAD =           0.0000         CONSTANT HEAD =           0.0000
               WELLS =           0.0000                 WELLS =           0.0000
     HEAD DEP BOUNDS =     5449412.5000       HEAD DEP BOUNDS =           0.2148
      STREAM LEAKAGE =  1932395008.0000        STREAM LEAKAGE =          56.6913
       LAKE  SEEPAGE =           0.0000         LAKE  SEEPAGE =           0.0000
        UZF RECHARGE =   710802880.0000          UZF RECHARGE =           6.3340
               GW ET =           0.0000                 GW ET =           0.0000
     SURFACE LEAKAGE =           0.0000       SURFACE LEAKAGE =           0.0000

            TOTAL IN =  2846196736.0000              TOTAL IN =          76.6537

          OUT:                                     OUT:
          ----                                     ----
             STORAGE =  1680575744.0000               STORAGE =          37.6038
       CONSTANT HEAD =           0.0000         CONSTANT HEAD =           0.0000
               WELLS =   315360000.0000                 WELLS =           0.0000
     HEAD DEP BOUNDS =     7747373.0000       HEAD DEP BOUNDS =           0.3014
      STREAM LEAKAGE =   458009536.0000        STREAM LEAKAGE =          23.2210
       LAKE  SEEPAGE =           0.0000         LAKE  SEEPAGE =           0.0000
        UZF RECHARGE =           0.0000          UZF RECHARGE =           0.0000
               GW ET =   375664608.0000                 GW ET =          18.8535
     SURFACE LEAKAGE =    88378384.0000       SURFACE LEAKAGE =           0.3246

           TOTAL OUT =  2925735680.0000             TOTAL OUT =          80.3043

            IN - OUT =   -79538944.0000              IN - OUT =          -3.6507

 PERCENT DISCREPANCY =          -2.76     PERCENT DISCREPANCY =          -4.65






         TIME SUMMARY AT END OF TIME STEP   10 IN STRESS PERIOD   10
                    SECONDS     MINUTES      HOURS       DAYS        YEARS
                    -----------------------------------------------------------
   TIME STEP LENGTH 1.75200E+05  2920.0      48.667      2.0278     5.55175E-03
 STRESS PERIOD TIME 1.75200E+06  29200.      486.67      20.278     5.55175E-02
         TOTAL TIME 2.54040E+07 4.23400E+05  7056.7      294.03     0.80500    
1
 
 SOLVING FOR HEAD 
                                                   Max.-Head-Change                         Max.-Flux-Residual
  Residual-Control   Outer-Iter.   Inner-Iter.     Column Row Layer    Maximum-Head-Change  Column Row Layer    Maximum-Flux-Residual          L2-NORM 
          0                 1           2             4    3     2      -0.7969353365E-01       4    3    2        -0.2182804958E+01      0.6896830891E+01
          0                 2           2             4    3     2       0.7567779225E-02       4    3    2         0.2149531189E+00      0.5636371224E+00
          0                 3           1             4    3     2      -0.4264230715E-03       4    3    2        -0.1258223774E-01      0.2837918293E-01

    ------------------------------------------------
       NWT REQUIRED            3 OUTER ITERATIONS 
       AND A TOTAL OF          5 INNER ITERATIONS.
    ------------------------------------------------

 NO OUTPUT CONTROL FOR STRESS PERIOD   10   TIME STEP   11
 ..........LAKE  1 IS DRY..........
 
 SOLVING FOR HEAD 
                                                   Max.-Head-Change                         Max.-Flux-Residual
  Residual-Control   Outer-Iter.   Inner-Iter.     Column Row Layer    Maximum-Head-Change  Column Row Layer    Maximum-Flux-Residual          L2-NORM 
          0                 1           2             4    3     2      -0.7582553460E-01       4    3    2        -0.2074367327E+01      0.6643319846E+01
          0                 2           2             4    3     2       0.7202355218E-02       4    3    2         0.2043671455E+00      0.5403900138E+00
          0                 3           1             4    3     2      -0.4060370160E-03       4    3    2        -0.1197158473E-01      0.2693774150E-01

    ------------------------------------------------
       NWT REQUIRED            3 OUTER ITERATIONS 
       AND A TOTAL OF          5 INNER ITERATIONS.
    ------------------------------------------------

 NO OUTPUT CONTROL FOR STRESS PERIOD   10   TIME STEP   12
 ..........LAKE  1 IS DRY..........
 
 SOLVING FOR HEAD 
                                                   Max.-Head-Change                         Max.-Flux-Residual
  Residual-Control   Outer-Iter.   Inner-Iter.     Column Row Layer    Maximum-Head-Change  Column Row Layer    Maximum-Flux-Residual          L2-NORM 
          0                 1           2             3    3     2      -0.8785035954E-01       3    3    2        -0.2399719484E+01      0.6898489075E+01
          0                 2           2             3    3     2       0.8336205638E-02       3    3    2         0.2358518393E+00      0.5802224751E+00
          0                 3           1             3    3     2      -0.4695343659E-03       3    3    2        -0.1375785444E-01      0.2981359729E-01

    ------------------------------------------------
       NWT REQUIRED            3 OUTER ITERATIONS 
       AND A TOTAL OF          5 INNER ITERATIONS.
    ------------------------------------------------

 NO OUTPUT CONTROL FOR STRESS PERIOD   10   TIME STEP   13
 ..........LAKE  1 IS DRY..........
 
 SOLVING FOR HEAD 
                                                   Max.-Head-Change                         Max.-Flux-Residual
  Residual-Control   Outer-Iter.   Inner-Iter.     Column Row Layer    Maximum-Head-Change  Column Row Layer    Maximum-Flux-Residual          L2-NORM 
          0                 1           2             3    3     2      -0.8976658043E-01       3    3    2        -0.2449137910E+01      0.6818427147E+01
          0                 2           2             3    3     2       0.8515401087E-02       3    3    2         0.2407498116E+00      0.5776994323E+00
          0                 3           1             3    3     2      -0.4795358162E-03       3    3    2        -0.1404778557E-01      0.2986097706E-01

    ------------------------------------------------
       NWT REQUIRED            3 OUTER ITERATIONS 
       AND A TOTAL OF          5 INNER ITERATIONS.
    ------------------------------------------------

 NO OUTPUT CONTROL FOR STRESS PERIOD   10   TIME STEP   14
 ..........LAKE  1 IS DRY..........
 
 SOLVING FOR HEAD 
                                                   Max.-Head-Change                         Max.-Flux-Residual
  Residual-Control   Outer-Iter.   Inner-Iter.     Column Row Layer    Maximum-Head-Change  Column Row Layer    Maximum-Flux-Residual          L2-NORM 
          0                 1           2             3    3     2      -0.8574045829E-01       3    3    2        -0.2336969961E+01      0.6561693251E+01
          0                 2           2             3    3     2       0.8133952711E-02       3    3    2         0.2298216062E+00      0.5533848019E+00
          0                 3           1             3    3     2      -0.4582197880E-03       3    3    2        -0.1341992928E-01      0.2848106186E-01

    ------------------------------------------------
       NWT REQUIRED            3 OUTER ITERATIONS 
       AND A TOTAL OF          5 INNER ITERATIONS.
    ------------------------------------------------

 OUTPUT CONTROL FOR STRESS PERIOD   10   TIME STEP   15
    PRINT BUDGET
    PRINT HEAD FOR ALL LAYERS
    SAVE HEAD FOR ALL LAYERS
    SAVE BUDGET

  HEAD DEP BOUNDS   PERIOD   10   STEP    15
 BOUNDARY      1   LAYER   2   ROW    13   COL     1   RATE   -0.297676    
 BOUNDARY      2   LAYER   2   ROW    14   COL     9   RATE    0.214832    



 STREAM LISTING     PERIOD     10   STEP       15

 LAYER ROW COL. STREAM  RCH.  FLOW INTO     FLOW TO   FLOW OUT OF   OVRLND.     DIRECT     STREAM       STREAM     STREAM     STREAM   STREAMBED  STREAMBED
                SEG.NO.  NO.  STRM. RCH.    AQUIFER    STRM. RCH.    RUNOFF     PRECIP       ET          HEAD       DEPTH      WIDTH   CONDCTNC.   GRADIENT

   2    1    1     1     1    4.6000E+01  8.5100E-01   4.5149E+01  0.000E+00  0.000E+00  0.000E+00  1.09442E+03  1.372E+00  1.641E+01  7.385E-01  3.841E-01
   2    2    2     1     2    4.5149E+01  3.2925E+00   4.1856E+01  0.000E+00  0.000E+00  0.000E+00  1.08942E+03  1.357E+00  1.612E+01  1.129E+00  9.724E-01
   2    3    3     1     3    4.1856E+01  4.0520E+00   3.7804E+01  0.000E+00  0.000E+00  0.000E+00  1.08375E+03  1.331E+00  1.559E+01  9.356E-01  1.444E+00
   2    3    4     1     4    3.7804E+01  3.5828E+00   3.4222E+01  0.000E+00  0.000E+00  0.000E+00  1.07871E+03  1.302E+00  1.501E+01  8.329E-01  1.434E+00
   2    4    5     2     1    2.4222E+01  0.0000E+00   2.4222E+01  0.000E+00  0.000E+00  0.000E+00  1.07307E+03  1.137E+00  1.200E+01  7.800E-01  1.379E+00
   2    5    6     2     2    2.4222E+01  2.4296E+00   2.1792E+01  0.000E+00  0.000E+00  0.000E+00  1.06756E+03  1.049E+00  1.200E+01  6.000E-01  1.350E+00
   2    6    6     2     3    2.1792E+01  2.3824E+00   1.9410E+01  0.000E+00  0.000E+00  0.000E+00  1.06276E+03  9.707E-01  1.200E+01  6.000E-01  1.324E+00
   2    7    6     2     4    1.9410E+01  2.3336E+00   1.7076E+01  0.000E+00  0.000E+00  0.000E+00  1.05796E+03  8.894E-01  1.200E+01  6.000E-01  1.296E+00
   2    8    6     2     5    1.7076E+01  2.2828E+00   1.4793E+01  0.000E+00  0.000E+00  0.000E+00  1.05316E+03  8.046E-01  1.200E+01  6.000E-01  1.268E+00
   2    3    5     3     1    1.0000E+01  2.8252E+00   7.1748E+00  0.000E+00  0.000E+00  0.000E+00  1.07555E+03  1.909E+00  9.636E+00  7.227E-01  1.955E+00
   2    3    6     3     2    7.1748E+00  2.4905E+00   4.6843E+00  0.000E+00  0.000E+00  0.000E+00  1.07264E+03  1.727E+00  8.909E+00  6.682E-01  1.864E+00
   2    3    7     3     3    4.6843E+00  1.9718E+00   2.7125E+00  0.000E+00  0.000E+00  0.000E+00  1.06987E+03  1.555E+00  8.218E+00  5.547E-01  1.777E+00
   2    4    8     3     4    2.7125E+00  2.2567E+00   4.5579E-01  0.000E+00  0.000E+00  0.000E+00  1.06682E+03  1.364E+00  7.455E+00  6.709E-01  1.682E+00
   2    5    8     3     5    4.5579E-01  4.5579E-01   0.0000E+00  0.000E+00  0.000E+00  0.000E+00  1.06362E+03  0.000E+00  6.655E+00  4.991E-01  1.582E+00
   2    6    8     3     6    0.0000E+00  0.0000E+00   0.0000E+00  0.000E+00  0.000E+00  0.000E+00  1.06055E+03  0.000E+00  6.145E+00  1.844E-01  1.000E+00
   2    5   10     4     1    1.0000E+01  9.0525E-01   9.0947E+00  0.000E+00  0.000E+00  0.000E+00  1.07835E+03  6.210E-01  1.000E+01  2.500E-01  1.207E+00
   2    5    9     4     2    9.0947E+00  1.7835E+00   7.3113E+00  0.000E+00  0.000E+00  0.000E+00  1.07148E+03  5.670E-01  1.000E+01  5.000E-01  1.189E+00
   2    6    8     4     3    7.3113E+00  1.2257E+00   6.0855E+00  0.000E+00  0.000E+00  0.000E+00  1.06368E+03  5.021E-01  1.000E+01  3.500E-01  1.167E+00
   2    6    8     5     1    6.0855E+00  1.4716E+00   4.6139E+00  0.000E+00  0.000E+00  0.000E+00  1.05854E+03  5.396E-01  1.039E+01  4.158E-01  1.180E+00
   2    7    7     5     2    4.6139E+00  1.4897E+00   3.1242E+00  0.000E+00  0.000E+00  0.000E+00  1.05398E+03  4.817E-01  8.557E+00  4.279E-01  1.161E+00
   2    8    7     5     3    3.1242E+00  8.2855E-01   2.2957E+00  0.000E+00  0.000E+00  0.000E+00  1.04968E+03  4.253E-01  6.911E+00  2.419E-01  1.142E+00
   2    8    6     5     4    2.2957E+00  4.9455E-01   1.8011E+00  0.000E+00  0.000E+00  0.000E+00  1.04664E+03  3.856E-01  5.843E+00  1.461E-01  1.129E+00
   2    9    6     6     1    1.6594E+01  2.2771E+00   1.4317E+01  0.000E+00  0.000E+00  0.000E+00  1.04352E+03  7.951E-01  1.200E+01  6.000E-01  1.265E+00
   2   10    7     6     2    1.4317E+01  2.2223E+00   1.2095E+01  0.000E+00  0.000E+00  0.000E+00  1.03889E+03  7.038E-01  1.200E+01  6.000E-01  1.235E+00
   2   11    7     6     3    1.2095E+01  1.3292E+00   1.0766E+01  0.000E+00  0.000E+00  0.000E+00  1.03426E+03  6.257E-01  1.200E+01  6.000E-01  7.385E-01
   2   12    7     6     4    1.0766E+01  1.4756E-01   1.0618E+01  0.000E+00  0.000E+00  0.000E+00  1.02968E+03  5.913E-01  1.200E+01  6.000E-01  8.198E-02
   2   13    7     6     5    1.0618E+01 -6.8572E-01   1.1304E+01  0.000E+00  0.000E+00  0.000E+00  1.02651E+03  6.040E-01  1.200E+01  2.400E-01 -9.524E-01
   2   14    9     7     1    1.5000E+02  2.8947E+00   1.4711E+02  0.000E+00  0.000E+00  0.000E+00  1.03986E+03  2.284E+00  5.528E+01  5.591E+00  1.726E-01
   2   13    8     7     2    1.4711E+02  3.6258E+00   1.4348E+02  0.000E+00  0.000E+00  0.000E+00  1.03477E+03  2.266E+00  5.520E+01  6.141E+00  1.968E-01
   2   13    7     7     3    1.4348E+02  1.6781E+00   1.4180E+02  0.000E+00  0.000E+00  0.000E+00  1.02967E+03  2.252E+00  5.513E+01  5.575E+00  1.003E-01
   2   13    6     8     1    1.5311E+02 -2.1450E-01   1.5335E+02  3.215E-02  0.000E+00  0.000E+00  1.02469E+03  2.817E+00  4.084E+01  4.162E+00 -1.718E-02
   2   13    5     8     2    1.5335E+02 -3.2307E+00   1.5661E+02  3.215E-02  0.000E+00  0.000E+00  1.01845E+03  2.829E+00  4.102E+01  4.180E+00 -2.576E-01
   2   13    4     8     3    1.5661E+02 -5.8295E+00   1.6248E+02  3.215E-02  0.000E+00  0.000E+00  1.01224E+03  2.861E+00  4.148E+01  4.227E+00 -4.597E-01
   2   13    3     8     4    1.6248E+02 -6.3295E+00   1.6884E+02  3.215E-02  0.000E+00  0.000E+00  1.00603E+03  2.902E+00  4.208E+01  4.288E+00 -4.920E-01
   2   13    2     8     5    1.6884E+02 -3.9505E+00   1.7282E+02  3.215E-02  0.000E+00  0.000E+00  9.99812E+02  2.937E+00  4.258E+01  4.339E+00 -3.035E-01
   2   13    1     8     6    1.7282E+02 -2.6237E+00   1.7546E+02  1.929E-02  0.000E+00  0.000E+00  9.94833E+02  2.958E+00  4.289E+01  2.623E+00 -3.335E-01
   2    4    5     9     1    0.0000E+00  0.0000E+00   0.0000E+00  0.000E+00  0.000E+00  0.000E+00  1.06000E+03  1.588E-04  2.000E+01  2.000E-03 -2.172E-01
   2    4    5    10     1    0.0000E+00  0.0000E+00   0.0000E+00  0.000E+00  0.000E+00  0.000E+00  1.08000E+03  0.000E+00  2.000E+01  2.000E-03  1.000E+00



 ..........LAKE  1 IS DRY..........

     SECTIONS OF THE LAKE BOTTOM HAVE BECOME DRY.  THE DRYSECTIONS
     LIE ABOVE THE FOLLOWING  1 AQUIFER CELLS (LAYER,ROW,COLUMN):
     (  2,  4,  5)  (

 PERIOD    10     TIME STEP    15     TIME STEP LENGTH  1.7520E+05
 PERIOD TIME  2.6280E+06     TOTAL SIMULATION TIME  2.6280E+07


                 HYDROLOGIC BUDGET SUMMARIES FOR SIMULATED LAKES
     (ALL FLUID FLUXES ARE VOLUMES ADDED TO THE LAKE DURING PRESENT TIME STEP)
     ----------------------------------------------------------------------------------------
 LAKE    STAGE         VOLUME     VOL. CHANGE      PRECIP     EVAPORATION    SPECIFIED RUNOFF     COMPUTED RUNOFF    TOTAL RUNOFF
   1  1.074500E+03  0.000000E+00  0.000000E+00  0.000000E+00  0.000000E+00   0.000000E+00          0.000000E+00      0.000000E+00

            GROUND WATER            SURFACE WATER        WATER          UZF INFIL.
 LAKE    INFLOW     OUTFLOW      INFLOW     OUTFLOW       USE        FROM LAKE
   1  0.0000E+00  0.0000E+00  0.0000E+00  0.0000E+00  0.0000E+00       0.0000E+00

      CONNECTED LAKE   TIME-STEP         STAGE-CHANGE          PERCENT
 LAKE    INFLUX      SURFACE AREA   TIME STEP  CUMULATIVE    DISCREPANCY
   1   0.0000E+00     0.0000E+00  -1.3306E-03  7.4458E-04       0.000
 --------------------------------------------------------------------------------



            CUMULATIVE HYDROLOGIC BUDGET SUMMARIES FOR SIMULATED LAKES
     (ALL FLUID FLUXES ARE SUMS OF VOLUMES ADDED TO THE LAKE SINCE INITIAL TIME)
     ---------------------------------------------------------------------------
 LAKE       PRECIP       EVAP     SPECIFIED RUNOFF   COMPUTED RUNOFF   TOTAL RUNOFF
   1     0.0000E+00  1.6028E+06       0.0000E+00       0.0000E+00       0.0000E+00

            GROUND WATER            SURFACE WATER       UZF INFIL.
 LAKE    INFLOW     OUTFLOW      INFLOW     OUTFLOW     FROM LAKE
   1  0.0000E+00  0.0000E+00  1.9325E+08  4.8784E+07    1.4286E+08

         WATER    CONNECTED LAKE   CHANGE       PERCENT
 LAKE     USE         INFLUX       IN VOL.    DISCREPANCY
   1   0.0000E+00   0.0000E+00   0.0000E+00     -0.000
 --------------------------------------------------------------------------------

 UBDSV3 SAVING "           GW ET" ON UNIT  61 AT TIME STEP    15, STRESS PERIOD  10
 UBDSV3 SAVING "    UZF RECHARGE" ON UNIT  61 AT TIME STEP    15, STRESS PERIOD  10
 UBDSV3 SAVING " SURFACE LEAKAGE" ON UNIT  61 AT TIME STEP    15, STRESS PERIOD  10
 UBDSV3 SAVING "       HORT+DUNN" ON UNIT  61 AT TIME STEP    15, STRESS PERIOD  10
 UBDSV3 SAVING "  STORAGE CHANGE" ON UNIT  61 AT TIME STEP    15, STRESS PERIOD  10


UNSATURATED ZONE PACKAGE VOLUMETRIC BUDGET FOR  TIME STEP    15 STRESS PERIOD   10
  ------------------------------------------------------------------------------



     CUMULATIVE VOLUMES      L**3       RATES FOR THIS TIME STEP      L**3/T
     ------------------                 ------------------------

           IN:                                      IN:
           ---                                      ---
        INFILTRATION =  1607662358.4301          INFILTRATION =          16.8882

          OUT:                                     OUT:
          ----                                     ----
              UZF ET =  1511986536.0945                UZF ET =          21.0697
        UZF RECHARGE =   715958790.1231          UZF RECHARGE =           5.6108

            IN - OUT =  -620282967.7876              IN - OUT =          -9.7923

          STORAGE:                                 STORAGE:
          --------                                 --------
      STORAGE CHANGE =  -620288348.1203        STORAGE CHANGE =          -9.7894

 PERCENT DISCREPANCY IS DIFFERENCE BETWEEN IN-OUT MINUS CHANGE IN STORAGE
 DIVIDED BY THE AVERAGE OF IN AND OUT TIMES 100

 PERCENT DISCREPANCY =           0.00     PERCENT DISCREPANCY =          -0.01






1
              HEAD IN LAYER   1 AT END OF TIME STEP    15 IN STRESS PERIOD   10
  -----------------------------------------------------------------------------

           1       2       3       4       5       6       7       8       9      10
 ...................................................................................
   1  6999.00 6999.00 6999.00 6999.00 6999.00 6999.00 6999.00 6999.00 6999.00 6999.00
   2  6999.00 6999.00 6999.00 6999.00 6999.00 6999.00 6999.00 6999.00 6999.00 6999.00
   3  6999.00 6999.00 6999.00 6999.00 6999.00 6999.00 6999.00 6999.00 6999.00 6999.00
   4  6999.00 6999.00 6999.00 6999.00 1074.50 6999.00 6999.00 6999.00 6999.00 6999.00
   5  6999.00 6999.00 6999.00 6999.00 6999.00 6999.00 6999.00 6999.00 6999.00 6999.00
   6  6999.00 6999.00 6999.00 6999.00 6999.00 6999.00 6999.00 6999.00 6999.00 6999.00
   7  6999.00 6999.00 6999.00 6999.00 6999.00 6999.00 6999.00 6999.00 6999.00 6999.00
   8  6999.00 6999.00 6999.00 6999.00 6999.00 6999.00 6999.00 6999.00 6999.00 6999.00
   9  6999.00 6999.00 6999.00 6999.00 6999.00 6999.00 6999.00 6999.00 6999.00 6999.00
  10  6999.00 6999.00 6999.00 6999.00 6999.00 6999.00 6999.00 6999.00 6999.00 6999.00
  11  6999.00 6999.00 6999.00 6999.00 6999.00 6999.00 6999.00 6999.00 6999.00 6999.00
  12  6999.00 6999.00 6999.00 6999.00 6999.00 6999.00 6999.00 6999.00 6999.00 6999.00
  13  6999.00 6999.00 6999.00 6999.00 6999.00 6999.00 6999.00 6999.00 6999.00 6999.00
  14  6999.00 6999.00 6999.00 6999.00 6999.00 6999.00 6999.00 6999.00 6999.00 6999.00
  15  6999.00 6999.00 6999.00 6999.00 6999.00 6999.00 6999.00 6999.00 6999.00 6999.00
1
              HEAD IN LAYER   2 AT END OF TIME STEP    15 IN STRESS PERIOD   10
  -----------------------------------------------------------------------------

           1       2       3       4       5       6       7       8       9      10
 ...................................................................................
   1  1093.27 1089.28 6999.00 6999.00 6999.00 6999.00 6999.00 6999.00 6999.00 6999.00
   2  1088.66 1086.50 1080.83 6999.00 6999.00 1067.82 1067.05 1065.48 6999.00 6999.00
   3  6999.00 1076.24 1075.19 1070.88 1068.91 1067.16 1065.95 1063.94 6999.00 6999.00
   4  1062.13 1064.66 1065.56 1062.58 1060.65 1058.84 1058.40 1060.42 1058.17 6999.00
   5  1057.98 1056.28 1056.11 1055.41 1054.99 1054.84 1053.45 1053.75 1056.11 1057.93
   6  1053.83 1050.52 1049.47 1049.66 1049.93 1051.01 1050.74 1051.64 1052.88 1056.98
   7  1050.86 1045.38 1044.00 1044.51 1045.28 1046.94 1047.48 1048.54 1049.36 6999.00
   8  6999.00 1039.65 1038.96 1039.75 1040.67 1042.58 1043.24 1044.60 1045.39 6999.00
   9  6999.00 1033.66 1033.65 1034.75 1035.84 1037.81 1038.58 1038.85 1040.98 6999.00
  10  6999.00 1027.57 1028.21 1029.87 1031.29 1033.27 1035.07 1035.28 1037.53 1040.69
  11  6999.00 1019.99 1021.40 1024.84 1027.10 1029.63 1032.05 1032.93 1035.23 6999.00
  12  1003.23 1009.93 1014.29 1019.03 1022.82 1026.53 1029.44 1031.59 1034.84 6999.00
  13   995.83 1000.72 1007.50 1013.61 1019.23 1024.74 1029.37 1034.18 1036.74 6999.00
  14  6999.00 1007.12 1010.87 1015.83 1020.95 1025.83 1030.22 1035.21 1039.35 6999.00
  15  6999.00 6999.00 1018.81 1021.60 1025.18 1028.10 6999.00 6999.00 6999.00 6999.00

 HEAD WILL BE SAVED ON UNIT   58 AT END OF TIME STEP   15, STRESS PERIOD   10
1
  VOLUMETRIC BUDGET FOR ENTIRE MODEL AT END OF TIME STEP   15, STRESS PERIOD  10
  ------------------------------------------------------------------------------

     CUMULATIVE VOLUMES      L**3       RATES FOR THIS TIME STEP      L**3/T
     ------------------                 ------------------------

           IN:                                      IN:
           ---                                      ---
             STORAGE =   208656448.0000               STORAGE =          12.6318
       CONSTANT HEAD =           0.0000         CONSTANT HEAD =           0.0000
               WELLS =           0.0000                 WELLS =           0.0000
     HEAD DEP BOUNDS =     5637593.0000       HEAD DEP BOUNDS =           0.2148
      STREAM LEAKAGE =  1980604928.0000        STREAM LEAKAGE =          53.5803
       LAKE  SEEPAGE =           0.0000         LAKE  SEEPAGE =           0.0000
        UZF RECHARGE =   715958720.0000          UZF RECHARGE =           5.6108
               GW ET =           0.0000                 GW ET =           0.0000
     SURFACE LEAKAGE =           0.0000       SURFACE LEAKAGE =           0.0000

            TOTAL IN =  2910857728.0000              TOTAL IN =          72.0377

          OUT:                                     OUT:
          ----                                     ----
             STORAGE =  1711286272.0000               STORAGE =          33.2532
       CONSTANT HEAD =           0.0000         CONSTANT HEAD =           0.0000
               WELLS =   315360000.0000                 WELLS =           0.0000
     HEAD DEP BOUNDS =     8009409.0000       HEAD DEP BOUNDS =           0.2977
      STREAM LEAKAGE =   478084096.0000        STREAM LEAKAGE =          22.8640
       LAKE  SEEPAGE =           0.0000         LAKE  SEEPAGE =           0.0000
        UZF RECHARGE =           0.0000          UZF RECHARGE =           0.0000
               GW ET =   392144000.0000                 GW ET =          18.8164
     SURFACE LEAKAGE =    88572352.0000       SURFACE LEAKAGE =           0.1682

           TOTAL OUT =  2993456128.0000             TOTAL OUT =          75.3994

            IN - OUT =   -82598400.0000              IN - OUT =          -3.3617

 PERCENT DISCREPANCY =          -2.80     PERCENT DISCREPANCY =          -4.56






         TIME SUMMARY AT END OF TIME STEP   15 IN STRESS PERIOD   10
                    SECONDS     MINUTES      HOURS       DAYS        YEARS
                    -----------------------------------------------------------
   TIME STEP LENGTH 1.75200E+05  2920.0      48.667      2.0278     5.55175E-03
 STRESS PERIOD TIME 2.62800E+06  43800.      730.00      30.417     8.32763E-02
         TOTAL TIME 2.62800E+07 4.38000E+05  7300.0      304.17     0.83276    
1
1
                            STRESS PERIOD NO.   11, LENGTH =   2628000.    
                            -----------------------------------------------

                              NUMBER OF TIME STEPS =    15

                               MULTIPLIER FOR DELT =     1.000

                            INITIAL TIME STEP SIZE =   175200.0    

 WELL NO.  LAYER   ROW   COL   STRESS RATE         
 --------------------------------------------------
      1      2      6      4      -3.000    
      2      2      6      5      -3.000    
      3      2      7      4      -3.000    
      4      2      7      5      -3.000    
      5      2      8      4      -3.000    
      6      2      8      5      -3.000    
      7      2      9      4      -3.000    
      8      2      9      5      -3.000    
      9      2     10      4      -3.000    
     10      2     10      5      -3.000    

     10 WELLS

 REUSING NON-PARAMETER GHB CELLS FROM LAST STRESS PERIOD

      2 GHB CELLS

 REUSING STREAM SEGMENT DATA FROM LAST STRESS PERIOD



            AREAL INFILTRATION RATE
 READING ON UNIT   19 WITH FORMAT: (10F4.0)            

            1           2           3           4           5           6           7           8           9          10
 ........................................................................................................................
   1   1.0000E-09  2.0000E-09   0.000       0.000       0.000       0.000       0.000       0.000       0.000       0.000    
   2   2.0000E-09  1.0000E-09  2.0000E-09   0.000       0.000      8.0000E-09  8.0000E-09  5.0000E-09   0.000       0.000    
   3    0.000      5.0000E-09  1.0000E-09  1.0000E-09  8.0000E-09  8.0000E-09  5.0000E-09  5.0000E-09   0.000       0.000    
   4   8.0000E-09  5.0000E-09  1.0000E-09  1.0000E-09  1.0000E-09  1.0000E-09  1.0000E-09  1.0000E-09  2.0000E-09   0.000    
   5   8.0000E-09  5.0000E-09  1.0000E-09  1.0000E-09  1.0000E-09  1.0000E-09  1.0000E-09  1.0000E-09  1.0000E-09  1.0000E-09
   6   8.0000E-09  5.0000E-09  5.0000E-09  2.0000E-09  2.0000E-09  1.0000E-09  1.0000E-09  1.0000E-09  1.0000E-09  5.0000E-09
   7   8.0000E-09  5.0000E-09  5.0000E-09  2.0000E-09  2.0000E-09  1.0000E-09  1.0000E-09  2.0000E-09  2.0000E-09   0.000    
   8    0.000      5.0000E-09  5.0000E-09  2.0000E-09  2.0000E-09  1.0000E-09  1.0000E-09  2.0000E-09  5.0000E-09   0.000    
   9    0.000      5.0000E-09  5.0000E-09  2.0000E-09  2.0000E-09  1.0000E-09  1.0000E-09  2.0000E-09  5.0000E-09   0.000    
  10    0.000      5.0000E-09  5.0000E-09  2.0000E-09  2.0000E-09  1.0000E-09  1.0000E-09  2.0000E-09  5.0000E-09  8.0000E-09
  11    0.000      1.0000E-09  1.0000E-09  1.0000E-09  1.0000E-09  1.0000E-09  1.0000E-09  2.0000E-09  5.0000E-09   0.000    
  12   1.0000E-09  1.0000E-09  1.0000E-09  1.0000E-09  1.0000E-09  1.0000E-09  1.0000E-09  1.0000E-09  2.0000E-09   0.000    
  13   1.0000E-09  1.0000E-09  2.0000E-09  2.0000E-09  2.0000E-09  2.0000E-09  2.0000E-09  1.0000E-09  1.0000E-09   0.000    
  14    0.000      2.0000E-09  5.0000E-09  5.0000E-09  5.0000E-09  5.0000E-09  5.0000E-09  2.0000E-09  1.0000E-09   0.000    
  15    0.000       0.000      8.0000E-09  8.0000E-09  8.0000E-09  8.0000E-09   0.000       0.000       0.000       0.000    

USING ET RATE FROM PREVIOUS STRESS PERIOD. CURRENT PERIOD IS:      11

 USING ET EXTINCTION DEPTH FROM PREVIOUS STRESS PERIOD. CURRENT PERIOD IS:      11

 USING EXTINCTION WATER CONTENT FROM PREVIOUS STRESS PERIOD. CURRENT PERIOD IS:      11




 If any subsequent steady-state stress periods, min. and max. stages for each lake will be read in Record 9a.




 REUSING LAKE CONFIGURATION DATA FROM LAST STRESS PERIOD


 LAKE       PRECIP     EVAP     RUNOFF   WITHDRAW   BOTTOM     AREA
----------------------------------------------------------------------
   1     0.000E+00 4.000E-08 0.000E+00  0.000E+00 1.074E+03 2.500E+07




         C               INTERFACE CONDUCTANCES BETWEEN LAKE AND AQUIFER CELLS
   L     O          (IF TYPE = 6, CONDUCTANCE (L^2/T) IS BETWEEN AQUIFER CELL AND OVERLYING LAKE CELL.)
   A     L  L  T    (IF TYPE = 1 TO 4, CONDUCTANCES ARE PER UNIT SATURATED THICKNESS (L/T).)
   Y  R  U  A  Y
   E  O  M  K  P                        LAKEBED      C O N D U C T A N C E S
   R  W  N  E  E     DELTA Y   DELTA X  LEAKANCE   LAKEBED   AQUIFER  COMBINED
 _______________________________________________________________________________
   1  4  4  1  2    5.00E+03  5.00E+03  5.00E-02  2.50E+02  6.00E-03  6.00E-03
   1  3  5  1  3    5.00E+03  5.00E+03  5.00E-02  2.50E+02  1.20E-03  1.20E-03
   2  4  5  1  6    5.00E+03  5.00E+03  5.00E-02  1.25E+06  9.42E+00  9.42E+00
   1  5  5  1  4    5.00E+03  5.00E+03  5.00E-02  2.50E+02  6.00E-03  6.00E-03
   1  4  6  1  1    5.00E+03  5.00E+03  5.00E-02  2.50E+02  6.00E-03  6.00E-03
      LAKE     INFLOWING STREAM SEGMENT
         1                  9

 MAXIMUM NUMBER OF STREAMS INFLOWING TO A LAKE IS    1

      LAKE     OUTFLOWING STREAM SEGMENT
         1                 10

 MAXIMUM NUMBER OF STREAMS OUTFLOWING FROM A LAKE IS    1

 
 SOLVING FOR HEAD 
                                                   Max.-Head-Change                         Max.-Flux-Residual
  Residual-Control   Outer-Iter.   Inner-Iter.     Column Row Layer    Maximum-Head-Change  Column Row Layer    Maximum-Flux-Residual          L2-NORM 
          0                 1           2             3    3     2      -0.8647736072E-01       3    3    2        -0.2354609212E+01      0.7544530003E+01
          0                 2           2             3    3     2       0.8201697768E-02       3    3    2         0.2315875008E+00      0.6979126069E+00
          0                 3           1             3    3     2      -0.4619569325E-03       3    3    2        -0.1352628772E-01      0.4038148034E-01

    ------------------------------------------------
       NWT REQUIRED            3 OUTER ITERATIONS 
       AND A TOTAL OF          5 INNER ITERATIONS.
    ------------------------------------------------

 NO OUTPUT CONTROL FOR STRESS PERIOD   11   TIME STEP    1
 ..........LAKE  1 IS DRY..........
 
 SOLVING FOR HEAD 
                                                   Max.-Head-Change                         Max.-Flux-Residual
  Residual-Control   Outer-Iter.   Inner-Iter.     Column Row Layer    Maximum-Head-Change  Column Row Layer    Maximum-Flux-Residual          L2-NORM 
          0                 1           2             3    3     2      -0.9317936118E-01       3    3    2        -0.2534334827E+01      0.7420193295E+01
          0                 2           2             3    3     2       0.8830500640E-02       3    3    2         0.2491863413E+00      0.7347773027E+00
          0                 3           1             3    3     2      -0.4968883591E-03       3    3    2        -0.1454709806E-01      0.4277572555E-01

    ------------------------------------------------
       NWT REQUIRED            3 OUTER ITERATIONS 
       AND A TOTAL OF          5 INNER ITERATIONS.
    ------------------------------------------------

 NO OUTPUT CONTROL FOR STRESS PERIOD   11   TIME STEP    2
 ..........LAKE  1 IS DRY..........
 
 SOLVING FOR HEAD 
                                                   Max.-Head-Change                         Max.-Flux-Residual
  Residual-Control   Outer-Iter.   Inner-Iter.     Column Row Layer    Maximum-Head-Change  Column Row Layer    Maximum-Flux-Residual          L2-NORM 
          0                 1           2             3    3     2      -0.8943931979E-01       3    3    2        -0.2430195195E+01      0.7002654363E+01
          0                 2           2             3    3     2       0.8476077029E-02       3    3    2         0.2390296946E+00      0.6948751695E+00
          0                 3           1             3    3     2      -0.4770618109E-03       3    3    2        -0.1396229046E-01      0.4041001146E-01

    ------------------------------------------------
       NWT REQUIRED            3 OUTER ITERATIONS 
       AND A TOTAL OF          5 INNER ITERATIONS.
    ------------------------------------------------

 NO OUTPUT CONTROL FOR STRESS PERIOD   11   TIME STEP    3
 ..........LAKE  1 IS DRY..........
 
 SOLVING FOR HEAD 
                                                   Max.-Head-Change                         Max.-Flux-Residual
  Residual-Control   Outer-Iter.   Inner-Iter.     Column Row Layer    Maximum-Head-Change  Column Row Layer    Maximum-Flux-Residual          L2-NORM 
          0                 1           2             3    3     2      -0.8593392223E-01       3    3    2        -0.2332634474E+01      0.6637478137E+01
          0                 2           2             3    3     2       0.8143879639E-02       3    3    2         0.2295112587E+00      0.6611284131E+00
          0                 3           1             3    3     2      -0.4585241691E-03       3    3    2        -0.1341411978E-01      0.3847045238E-01

    ------------------------------------------------
       NWT REQUIRED            3 OUTER ITERATIONS 
       AND A TOTAL OF          5 INNER ITERATIONS.
    ------------------------------------------------

 NO OUTPUT CONTROL FOR STRESS PERIOD   11   TIME STEP    4
 ..........LAKE  1 IS DRY..........
 
 SOLVING FOR HEAD 
                                                   Max.-Head-Change                         Max.-Flux-Residual
  Residual-Control   Outer-Iter.   Inner-Iter.     Column Row Layer    Maximum-Head-Change  Column Row Layer    Maximum-Flux-Residual          L2-NORM 
          0                 1           2             3    3     2      -0.1039133634E+00       3    3    2        -0.2818924247E+01      0.7937204083E+01
          0                 2           2             3    3     2       0.9822853188E-02       3    3    2         0.2767530545E+00      0.7848954642E+00
          0                 3           1             3    3     2      -0.5508448940E-03       3    3    2        -0.1611771753E-01      0.4568139121E-01

    ------------------------------------------------
       NWT REQUIRED            3 OUTER ITERATIONS 
       AND A TOTAL OF          5 INNER ITERATIONS.
    ------------------------------------------------

 OUTPUT CONTROL FOR STRESS PERIOD   11   TIME STEP    5
    PRINT BUDGET
    SAVE BUDGET

            WELLS   PERIOD   11   STEP   5
 WELL      1   LAYER   2   ROW     6   COL     4   RATE    -3.00000    
 WELL      2   LAYER   2   ROW     6   COL     5   RATE    -3.00000    
 WELL      3   LAYER   2   ROW     7   COL     4   RATE    -3.00000    
 WELL      4   LAYER   2   ROW     7   COL     5   RATE    -3.00000    
 WELL      5   LAYER   2   ROW     8   COL     4   RATE    -3.00000    
 WELL      6   LAYER   2   ROW     8   COL     5   RATE    -3.00000    
 WELL      7   LAYER   2   ROW     9   COL     4   RATE    -3.00000    
 WELL      8   LAYER   2   ROW     9   COL     5   RATE    -3.00000    
 WELL      9   LAYER   2   ROW    10   COL     4   RATE    -3.00000    
 WELL     10   LAYER   2   ROW    10   COL     5   RATE    -3.00000    

  HEAD DEP BOUNDS   PERIOD   11   STEP     5
 BOUNDARY      1   LAYER   2   ROW    13   COL     1   RATE   -0.294754    
 BOUNDARY      2   LAYER   2   ROW    14   COL     9   RATE    0.214898    



 STREAM LISTING     PERIOD     11   STEP        5

 LAYER ROW COL. STREAM  RCH.  FLOW INTO     FLOW TO   FLOW OUT OF   OVRLND.     DIRECT     STREAM       STREAM     STREAM     STREAM   STREAMBED  STREAMBED
                SEG.NO.  NO.  STRM. RCH.    AQUIFER    STRM. RCH.    RUNOFF     PRECIP       ET          HEAD       DEPTH      WIDTH   CONDCTNC.   GRADIENT

   2    1    1     1     1    2.6315E+01  6.8513E-01   2.5630E+01  0.000E+00  0.000E+00  0.000E+00  1.09424E+03  1.194E+00  1.325E+01  5.964E-01  3.829E-01
   2    2    2     1     2    2.5630E+01  2.6984E+00   2.2932E+01  0.000E+00  0.000E+00  0.000E+00  1.08923E+03  1.169E+00  1.292E+01  9.043E-01  9.947E-01
   2    3    3     1     3    2.2932E+01  3.0470E+00   1.9885E+01  0.000E+00  0.000E+00  0.000E+00  1.08354E+03  1.124E+00  1.231E+01  7.389E-01  1.375E+00
   2    3    4     1     4    1.9885E+01  2.6172E+00   1.7267E+01  0.000E+00  0.000E+00  0.000E+00  1.07848E+03  1.077E+00  1.157E+01  6.420E-01  1.359E+00
   2    4    5     2     1    7.2673E+00  0.0000E+00   7.2673E+00  0.000E+00  0.000E+00  0.000E+00  1.07244E+03  5.077E-01  1.200E+01  7.800E-01  1.169E+00
   2    5    6     2     2    7.2673E+00  2.0235E+00   5.2439E+00  0.000E+00  0.000E+00  0.000E+00  1.06688E+03  3.725E-01  1.200E+01  6.000E-01  1.124E+00
   2    6    6     2     3    5.2439E+00  1.9361E+00   3.3078E+00  0.000E+00  0.000E+00  0.000E+00  1.06202E+03  2.268E-01  1.200E+01  6.000E-01  1.076E+00
   2    7    6     2     4    3.3078E+00  1.8169E+00   1.4909E+00  0.000E+00  0.000E+00  0.000E+00  1.05710E+03  2.817E-02  1.200E+01  6.000E-01  1.009E+00
   2    8    6     2     5    1.4909E+00  0.0000E+00   1.4909E+00  0.000E+00  0.000E+00  0.000E+00  1.05236E+03  0.000E+00  1.200E+01  6.000E-01  1.000E+00
   2    3    5     3     1    1.0000E+01  2.8252E+00   7.1748E+00  0.000E+00  0.000E+00  0.000E+00  1.07555E+03  1.909E+00  9.636E+00  7.227E-01  1.955E+00
   2    3    6     3     2    7.1748E+00  2.4905E+00   4.6843E+00  0.000E+00  0.000E+00  0.000E+00  1.07264E+03  1.727E+00  8.909E+00  6.682E-01  1.864E+00
   2    3    7     3     3    4.6843E+00  1.9718E+00   2.7125E+00  0.000E+00  0.000E+00  0.000E+00  1.06987E+03  1.555E+00  8.218E+00  5.547E-01  1.777E+00
   2    4    8     3     4    2.7125E+00  2.2567E+00   4.5579E-01  0.000E+00  0.000E+00  0.000E+00  1.06682E+03  1.364E+00  7.455E+00  6.709E-01  1.682E+00
   2    5    8     3     5    4.5579E-01  4.5579E-01   0.0000E+00  0.000E+00  0.000E+00  0.000E+00  1.06362E+03  0.000E+00  6.655E+00  4.991E-01  1.582E+00
   2    6    8     3     6    0.0000E+00  0.0000E+00   0.0000E+00  0.000E+00  0.000E+00  0.000E+00  1.06055E+03  0.000E+00  6.145E+00  1.844E-01  1.000E+00
   2    5   10     4     1    1.0000E+01  9.0525E-01   9.0947E+00  0.000E+00  0.000E+00  0.000E+00  1.07835E+03  6.210E-01  1.000E+01  2.500E-01  1.207E+00
   2    5    9     4     2    9.0947E+00  1.7835E+00   7.3113E+00  0.000E+00  0.000E+00  0.000E+00  1.07148E+03  5.670E-01  1.000E+01  5.000E-01  1.189E+00
   2    6    8     4     3    7.3113E+00  1.2257E+00   6.0855E+00  0.000E+00  0.000E+00  0.000E+00  1.06368E+03  5.021E-01  1.000E+01  3.500E-01  1.167E+00
   2    6    8     5     1    6.0855E+00  1.4716E+00   4.6139E+00  0.000E+00  0.000E+00  0.000E+00  1.05854E+03  5.396E-01  1.039E+01  4.158E-01  1.180E+00
   2    7    7     5     2    4.6139E+00  1.4897E+00   3.1242E+00  0.000E+00  0.000E+00  0.000E+00  1.05398E+03  4.817E-01  8.557E+00  4.279E-01  1.161E+00
   2    8    7     5     3    3.1242E+00  8.2855E-01   2.2957E+00  0.000E+00  0.000E+00  0.000E+00  1.04968E+03  4.253E-01  6.911E+00  2.419E-01  1.142E+00
   2    8    6     5     4    2.2957E+00  4.9455E-01   1.8011E+00  0.000E+00  0.000E+00  0.000E+00  1.04664E+03  3.856E-01  5.843E+00  1.461E-01  1.129E+00
   2    9    6     6     1    3.2920E+00  1.8340E+00   1.4580E+00  0.000E+00  0.000E+00  0.000E+00  1.04278E+03  5.669E-02  1.200E+01  6.000E-01  1.019E+00
   2   10    7     6     2    1.4580E+00  0.0000E+00   1.4580E+00  0.000E+00  0.000E+00  0.000E+00  1.03818E+03  0.000E+00  1.200E+01  6.000E-01  1.000E+00
   2   11    7     6     3    1.4580E+00  0.0000E+00   1.4580E+00  0.000E+00  0.000E+00  0.000E+00  1.03364E+03  0.000E+00  1.200E+01  6.000E-01  5.782E-01
   2   12    7     6     4    1.4580E+00 -1.0916E-01   1.5671E+00  0.000E+00  0.000E+00  0.000E+00  1.02912E+03  3.093E-02  1.200E+01  6.000E-01 -6.065E-02
   2   13    7     6     5    1.5671E+00 -7.9288E-01   2.3600E+00  0.000E+00  0.000E+00  0.000E+00  1.02603E+03  1.176E-01  1.200E+01  2.400E-01 -1.101E+00
   2   14    9     7     1    1.5000E+02  2.9042E+00   1.4710E+02  0.000E+00  0.000E+00  0.000E+00  1.03986E+03  2.284E+00  5.528E+01  5.591E+00  1.731E-01
   2   13    8     7     2    1.4710E+02  3.6592E+00   1.4344E+02  0.000E+00  0.000E+00  0.000E+00  1.03477E+03  2.266E+00  5.520E+01  6.141E+00  1.986E-01
   2   13    7     7     3    1.4344E+02  1.8959E+00   1.4154E+02  0.000E+00  0.000E+00  0.000E+00  1.02967E+03  2.251E+00  5.513E+01  5.575E+00  1.134E-01
   2   13    6     8     1    1.4390E+02 -1.3850E-01   1.4406E+02  1.775E-02  0.000E+00  0.000E+00  1.02464E+03  2.763E+00  4.007E+01  4.083E+00 -1.131E-02
   2   13    5     8     2    1.4406E+02 -3.1681E+00   1.4724E+02  1.775E-02  0.000E+00  0.000E+00  1.01840E+03  2.775E+00  4.024E+01  4.101E+00 -2.575E-01
   2   13    4     8     3    1.4724E+02 -5.8234E+00   1.5308E+02  1.775E-02  0.000E+00  0.000E+00  1.01218E+03  2.808E+00  4.071E+01  4.149E+00 -4.679E-01
   2   13    3     8     4    1.5308E+02 -6.2612E+00   1.5936E+02  1.775E-02  0.000E+00  0.000E+00  1.00598E+03  2.850E+00  4.133E+01  4.211E+00 -4.956E-01
   2   13    2     8     5    1.5936E+02 -3.8236E+00   1.6320E+02  1.775E-02  0.000E+00  0.000E+00  9.99760E+02  2.885E+00  4.183E+01  4.262E+00 -2.990E-01
   2   13    1     8     6    1.6320E+02 -2.5136E+00   1.6573E+02  1.065E-02  0.000E+00  0.000E+00  9.94781E+02  2.906E+00  4.214E+01  2.576E+00 -3.252E-01
   2    4    5     9     1    0.0000E+00  0.0000E+00   0.0000E+00  0.000E+00  0.000E+00  0.000E+00  1.06000E+03  1.461E-04  2.000E+01  2.000E-03 -1.892E-01
   2    4    5    10     1    0.0000E+00  0.0000E+00   0.0000E+00  0.000E+00  0.000E+00  0.000E+00  1.08000E+03  0.000E+00  2.000E+01  2.000E-03  1.000E+00



 ..........LAKE  1 IS DRY..........

     SECTIONS OF THE LAKE BOTTOM HAVE BECOME DRY.  THE DRYSECTIONS
     LIE ABOVE THE FOLLOWING  1 AQUIFER CELLS (LAYER,ROW,COLUMN):
     (  2,  4,  5)  (

 PERIOD    11     TIME STEP     5     TIME STEP LENGTH  1.7520E+05
 PERIOD TIME  8.7600E+05     TOTAL SIMULATION TIME  2.7156E+07


                 HYDROLOGIC BUDGET SUMMARIES FOR SIMULATED LAKES
     (ALL FLUID FLUXES ARE VOLUMES ADDED TO THE LAKE DURING PRESENT TIME STEP)
     ----------------------------------------------------------------------------------------
 LAKE    STAGE         VOLUME     VOL. CHANGE      PRECIP     EVAPORATION    SPECIFIED RUNOFF     COMPUTED RUNOFF    TOTAL RUNOFF
   1  1.074500E+03  0.000000E+00  0.000000E+00  0.000000E+00  0.000000E+00   0.000000E+00          0.000000E+00      0.000000E+00

            GROUND WATER            SURFACE WATER        WATER          UZF INFIL.
 LAKE    INFLOW     OUTFLOW      INFLOW     OUTFLOW       USE        FROM LAKE
   1  0.0000E+00  0.0000E+00  0.0000E+00  0.0000E+00  0.0000E+00       0.0000E+00

      CONNECTED LAKE   TIME-STEP         STAGE-CHANGE          PERCENT
 LAKE    INFLUX      SURFACE AREA   TIME STEP  CUMULATIVE    DISCREPANCY
   1   0.0000E+00     0.0000E+00  -1.3306E-03  7.4458E-04       0.000
 --------------------------------------------------------------------------------



            CUMULATIVE HYDROLOGIC BUDGET SUMMARIES FOR SIMULATED LAKES
     (ALL FLUID FLUXES ARE SUMS OF VOLUMES ADDED TO THE LAKE SINCE INITIAL TIME)
     ---------------------------------------------------------------------------
 LAKE       PRECIP       EVAP     SPECIFIED RUNOFF   COMPUTED RUNOFF   TOTAL RUNOFF
   1     0.0000E+00  1.6028E+06       0.0000E+00       0.0000E+00       0.0000E+00

            GROUND WATER            SURFACE WATER       UZF INFIL.
 LAKE    INFLOW     OUTFLOW      INFLOW     OUTFLOW     FROM LAKE
   1  0.0000E+00  0.0000E+00  1.9325E+08  4.8784E+07    1.4286E+08

         WATER    CONNECTED LAKE   CHANGE       PERCENT
 LAKE     USE         INFLUX       IN VOL.    DISCREPANCY
   1   0.0000E+00   0.0000E+00   0.0000E+00     -0.000
 --------------------------------------------------------------------------------

 UBDSV3 SAVING "           GW ET" ON UNIT  61 AT TIME STEP     5, STRESS PERIOD  11
 UBDSV3 SAVING "    UZF RECHARGE" ON UNIT  61 AT TIME STEP     5, STRESS PERIOD  11
 UBDSV3 SAVING " SURFACE LEAKAGE" ON UNIT  61 AT TIME STEP     5, STRESS PERIOD  11
 UBDSV3 SAVING "       HORT+DUNN" ON UNIT  61 AT TIME STEP     5, STRESS PERIOD  11
 UBDSV3 SAVING "  STORAGE CHANGE" ON UNIT  61 AT TIME STEP     5, STRESS PERIOD  11


UNSATURATED ZONE PACKAGE VOLUMETRIC BUDGET FOR  TIME STEP     5 STRESS PERIOD   11
  ------------------------------------------------------------------------------



     CUMULATIVE VOLUMES      L**3       RATES FOR THIS TIME STEP      L**3/T
     ------------------                 ------------------------

           IN:                                      IN:
           ---                                      ---
        INFILTRATION =  1615060357.2644          INFILTRATION =           8.4457

          OUT:                                     OUT:
          ----                                     ----
              UZF ET =  1527906689.2985                UZF ET =          17.3631
        UZF RECHARGE =   719765807.1200          UZF RECHARGE =           4.1110

            IN - OUT =  -632612139.1540              IN - OUT =         -13.0284

          STORAGE:                                 STORAGE:
          --------                                 --------
      STORAGE CHANGE =  -632617194.9433        STORAGE CHANGE =         -13.0283

 PERCENT DISCREPANCY IS DIFFERENCE BETWEEN IN-OUT MINUS CHANGE IN STORAGE
 DIVIDED BY THE AVERAGE OF IN AND OUT TIMES 100

 PERCENT DISCREPANCY =           0.00     PERCENT DISCREPANCY =          -0.00






1
  VOLUMETRIC BUDGET FOR ENTIRE MODEL AT END OF TIME STEP    5, STRESS PERIOD  11
  ------------------------------------------------------------------------------

     CUMULATIVE VOLUMES      L**3       RATES FOR THIS TIME STEP      L**3/T
     ------------------                 ------------------------

           IN:                                      IN:
           ---                                      ---
             STORAGE =   234947200.0000               STORAGE =          35.6541
       CONSTANT HEAD =           0.0000         CONSTANT HEAD =           0.0000
               WELLS =           0.0000                 WELLS =           0.0000
     HEAD DEP BOUNDS =     5825813.5000       HEAD DEP BOUNDS =           0.2149
      STREAM LEAKAGE =  2024409600.0000        STREAM LEAKAGE =          43.3164
       LAKE  SEEPAGE =           0.0000         LAKE  SEEPAGE =           0.0000
        UZF RECHARGE =   719765760.0000          UZF RECHARGE =           4.1110
               GW ET =           0.0000                 GW ET =           0.0000
     SURFACE LEAKAGE =           0.0000       SURFACE LEAKAGE =           0.0000

            TOTAL IN =  2984948480.0000              TOTAL IN =          83.2964

          OUT:                                     OUT:
          ----                                     ----
             STORAGE =  1724648064.0000               STORAGE =          12.8403
       CONSTANT HEAD =           0.0000         CONSTANT HEAD =           0.0000
               WELLS =   341640000.0000                 WELLS =          30.0000
     HEAD DEP BOUNDS =     8268569.0000       HEAD DEP BOUNDS =           0.2948
      STREAM LEAKAGE =   498061664.0000        STREAM LEAKAGE =          22.6305
       LAKE  SEEPAGE =           0.0000         LAKE  SEEPAGE =           0.0000
        UZF RECHARGE =           0.0000          UZF RECHARGE =           0.0000
               GW ET =   408765920.0000                 GW ET =          19.0196
     SURFACE LEAKAGE =    88676488.0000       SURFACE LEAKAGE =       9.5077E-02

           TOTAL OUT =  3070060800.0000             TOTAL OUT =          84.8802

            IN - OUT =   -85112320.0000              IN - OUT =          -1.5838

 PERCENT DISCREPANCY =          -2.81     PERCENT DISCREPANCY =          -1.88






         TIME SUMMARY AT END OF TIME STEP    5 IN STRESS PERIOD   11
                    SECONDS     MINUTES      HOURS       DAYS        YEARS
                    -----------------------------------------------------------
   TIME STEP LENGTH 1.75200E+05  2920.0      48.667      2.0278     5.55175E-03
 STRESS PERIOD TIME 8.76000E+05  14600.      243.33      10.139     2.77588E-02
         TOTAL TIME 2.71560E+07 4.52600E+05  7543.3      314.31     0.86052    
1
 
 SOLVING FOR HEAD 
                                                   Max.-Head-Change                         Max.-Flux-Residual
  Residual-Control   Outer-Iter.   Inner-Iter.     Column Row Layer    Maximum-Head-Change  Column Row Layer    Maximum-Flux-Residual          L2-NORM 
          0                 1           2             3    3     2      -0.1027943388E+00       3    3    2        -0.2785487134E+01      0.7795479340E+01
          0                 2           2             3    3     2       0.9714980975E-02       3    3    2         0.2734936581E+00      0.7790697549E+00
          0                 3           1             3    3     2      -0.5447096416E-03       3    3    2        -0.1593057429E-01      0.4596162675E-01

    ------------------------------------------------
       NWT REQUIRED            3 OUTER ITERATIONS 
       AND A TOTAL OF          5 INNER ITERATIONS.
    ------------------------------------------------

 NO OUTPUT CONTROL FOR STRESS PERIOD   11   TIME STEP    6
 ..........LAKE  1 IS DRY..........
 
 SOLVING FOR HEAD 
                                                   Max.-Head-Change                         Max.-Flux-Residual
  Residual-Control   Outer-Iter.   Inner-Iter.     Column Row Layer    Maximum-Head-Change  Column Row Layer    Maximum-Flux-Residual          L2-NORM 
          0                 1           2             3    3     2      -0.9888994552E-01       3    3    2        -0.2677035917E+01      0.7441113291E+01
          0                 2           2             3    3     2       0.9346126893E-02       3    3    2         0.2629308584E+00      0.7438373572E+00
          0                 3           1             3    3     2      -0.5241314386E-03       3    3    2        -0.1532372278E-01      0.4383842279E-01

    ------------------------------------------------
       NWT REQUIRED            3 OUTER ITERATIONS 
       AND A TOTAL OF          5 INNER ITERATIONS.
    ------------------------------------------------

 NO OUTPUT CONTROL FOR STRESS PERIOD   11   TIME STEP    7
 ..........LAKE  1 IS DRY..........
 
 SOLVING FOR HEAD 
                                                   Max.-Head-Change                         Max.-Flux-Residual
  Residual-Control   Outer-Iter.   Inner-Iter.     Column Row Layer    Maximum-Head-Change  Column Row Layer    Maximum-Flux-Residual          L2-NORM 
          0                 1           2             3    3     2      -0.9522796168E-01       3    3    2        -0.2575353587E+01      0.7131322205E+01
          0                 2           2             3    3     2       0.9000247404E-02       3    3    2         0.2530239081E+00      0.7143512955E+00
          0                 3           1             3    3     2      -0.5048313709E-03       3    3    2        -0.1475431796E-01      0.4205759663E-01

    ------------------------------------------------
       NWT REQUIRED            3 OUTER ITERATIONS 
       AND A TOTAL OF          5 INNER ITERATIONS.
    ------------------------------------------------

 NO OUTPUT CONTROL FOR STRESS PERIOD   11   TIME STEP    8
 ..........LAKE  1 IS DRY..........
 
 SOLVING FOR HEAD 
                                                   Max.-Head-Change                         Max.-Flux-Residual
  Residual-Control   Outer-Iter.   Inner-Iter.     Column Row Layer    Maximum-Head-Change  Column Row Layer    Maximum-Flux-Residual          L2-NORM 
          0                 1           2             3    3     2      -0.1071707331E+00       3    3    2        -0.2898729621E+01      0.7955217196E+01
          0                 2           2             3    3     2       0.1008940702E-01       3    3    2         0.2836539412E+00      0.7890758565E+00
          0                 3           1             3    3     2      -0.5626474255E-03       3    3    2        -0.1643219199E-01      0.4535930699E-01

    ------------------------------------------------
       NWT REQUIRED            3 OUTER ITERATIONS 
       AND A TOTAL OF          5 INNER ITERATIONS.
    ------------------------------------------------

 NO OUTPUT CONTROL FOR STRESS PERIOD   11   TIME STEP    9
 ..........LAKE  1 IS DRY..........
 
 SOLVING FOR HEAD 
                                                   Max.-Head-Change                         Max.-Flux-Residual
  Residual-Control   Outer-Iter.   Inner-Iter.     Column Row Layer    Maximum-Head-Change  Column Row Layer    Maximum-Flux-Residual          L2-NORM 
          0                 1           2             3    3     2      -0.1052193020E+00       3    3    2        -0.2843386045E+01      0.7766496783E+01
          0                 2           2             3    3     2       0.9906923387E-02       3    3    2         0.2783113029E+00      0.7782583908E+00
          0                 3           1             3    3     2      -0.5530137536E-03       3    3    2        -0.1612994735E-01      0.4452890534E-01

    ------------------------------------------------
       NWT REQUIRED            3 OUTER ITERATIONS 
       AND A TOTAL OF          5 INNER ITERATIONS.
    ------------------------------------------------

 OUTPUT CONTROL FOR STRESS PERIOD   11   TIME STEP   10
    PRINT BUDGET
    SAVE BUDGET

            WELLS   PERIOD   11   STEP  10
 WELL      1   LAYER   2   ROW     6   COL     4   RATE    -3.00000    
 WELL      2   LAYER   2   ROW     6   COL     5   RATE    -3.00000    
 WELL      3   LAYER   2   ROW     7   COL     4   RATE    -3.00000    
 WELL      4   LAYER   2   ROW     7   COL     5   RATE    -3.00000    
 WELL      5   LAYER   2   ROW     8   COL     4   RATE    -3.00000    
 WELL      6   LAYER   2   ROW     8   COL     5   RATE    -3.00000    
 WELL      7   LAYER   2   ROW     9   COL     4   RATE    -3.00000    
 WELL      8   LAYER   2   ROW     9   COL     5   RATE    -3.00000    
 WELL      9   LAYER   2   ROW    10   COL     4   RATE    -3.00000    
 WELL     10   LAYER   2   ROW    10   COL     5   RATE    -3.00000    

  HEAD DEP BOUNDS   PERIOD   11   STEP    10
 BOUNDARY      1   LAYER   2   ROW    13   COL     1   RATE   -0.292824    
 BOUNDARY      2   LAYER   2   ROW    14   COL     9   RATE    0.214954    



 STREAM LISTING     PERIOD     11   STEP       10

 LAYER ROW COL. STREAM  RCH.  FLOW INTO     FLOW TO   FLOW OUT OF   OVRLND.     DIRECT     STREAM       STREAM     STREAM     STREAM   STREAMBED  STREAMBED
                SEG.NO.  NO.  STRM. RCH.    AQUIFER    STRM. RCH.    RUNOFF     PRECIP       ET          HEAD       DEPTH      WIDTH   CONDCTNC.   GRADIENT

   2    1    1     1     1    1.9000E+01  6.3180E-01   1.8368E+01  0.000E+00  0.000E+00  0.000E+00  1.09413E+03  1.079E+00  1.160E+01  5.220E-01  4.034E-01
   2    2    2     1     2    1.8368E+01  2.4470E+00   1.5921E+01  0.000E+00  0.000E+00  0.000E+00  1.08911E+03  1.052E+00  1.111E+01  7.780E-01  1.048E+00
   2    3    3     1     3    1.5921E+01  2.4734E+00   1.3448E+01  0.000E+00  0.000E+00  0.000E+00  1.08342E+03  1.006E+00  1.029E+01  6.174E-01  1.335E+00
   2    3    4     1     4    1.3448E+01  2.0788E+00   1.1369E+01  0.000E+00  0.000E+00  0.000E+00  1.07837E+03  9.580E-01  9.463E+00  5.252E-01  1.319E+00
   2    4    5     2     1    1.3690E+00  0.0000E+00   1.3690E+00  0.000E+00  0.000E+00  0.000E+00  1.07199E+03  5.284E-02  1.200E+01  7.800E-01  1.018E+00
   2    5    6     2     2    1.3690E+00  0.0000E+00   1.3690E+00  0.000E+00  0.000E+00  0.000E+00  1.06651E+03  0.000E+00  1.200E+01  6.000E-01  1.000E+00
   2    6    6     2     3    1.3690E+00  0.0000E+00   1.3690E+00  0.000E+00  0.000E+00  0.000E+00  1.06179E+03  0.000E+00  1.200E+01  6.000E-01  1.000E+00
   2    7    6     2     4    1.3690E+00  0.0000E+00   1.3690E+00  0.000E+00  0.000E+00  0.000E+00  1.05708E+03  0.000E+00  1.200E+01  6.000E-01  1.000E+00
   2    8    6     2     5    1.3690E+00  0.0000E+00   1.3690E+00  0.000E+00  0.000E+00  0.000E+00  1.05236E+03  0.000E+00  1.200E+01  6.000E-01  1.000E+00
   2    3    5     3     1    1.0000E+01  2.8252E+00   7.1748E+00  0.000E+00  0.000E+00  0.000E+00  1.07555E+03  1.909E+00  9.636E+00  7.227E-01  1.955E+00
   2    3    6     3     2    7.1748E+00  2.4905E+00   4.6843E+00  0.000E+00  0.000E+00  0.000E+00  1.07264E+03  1.727E+00  8.909E+00  6.682E-01  1.864E+00
   2    3    7     3     3    4.6843E+00  1.9718E+00   2.7125E+00  0.000E+00  0.000E+00  0.000E+00  1.06987E+03  1.555E+00  8.218E+00  5.547E-01  1.777E+00
   2    4    8     3     4    2.7125E+00  2.2567E+00   4.5579E-01  0.000E+00  0.000E+00  0.000E+00  1.06682E+03  1.364E+00  7.455E+00  6.709E-01  1.682E+00
   2    5    8     3     5    4.5579E-01  4.5579E-01   0.0000E+00  0.000E+00  0.000E+00  0.000E+00  1.06362E+03  0.000E+00  6.655E+00  4.991E-01  1.582E+00
   2    6    8     3     6    0.0000E+00  0.0000E+00   0.0000E+00  0.000E+00  0.000E+00  0.000E+00  1.06055E+03  0.000E+00  6.145E+00  1.844E-01  1.000E+00
   2    5   10     4     1    1.0000E+01  9.0525E-01   9.0947E+00  0.000E+00  0.000E+00  0.000E+00  1.07835E+03  6.210E-01  1.000E+01  2.500E-01  1.207E+00
   2    5    9     4     2    9.0947E+00  1.7835E+00   7.3113E+00  0.000E+00  0.000E+00  0.000E+00  1.07148E+03  5.670E-01  1.000E+01  5.000E-01  1.189E+00
   2    6    8     4     3    7.3113E+00  1.2257E+00   6.0855E+00  0.000E+00  0.000E+00  0.000E+00  1.06368E+03  5.021E-01  1.000E+01  3.500E-01  1.167E+00
   2    6    8     5     1    6.0855E+00  1.4716E+00   4.6139E+00  0.000E+00  0.000E+00  0.000E+00  1.05854E+03  5.396E-01  1.039E+01  4.158E-01  1.180E+00
   2    7    7     5     2    4.6139E+00  1.4897E+00   3.1242E+00  0.000E+00  0.000E+00  0.000E+00  1.05398E+03  4.817E-01  8.557E+00  4.279E-01  1.161E+00
   2    8    7     5     3    3.1242E+00  8.2855E-01   2.2957E+00  0.000E+00  0.000E+00  0.000E+00  1.04968E+03  4.253E-01  6.911E+00  2.419E-01  1.142E+00
   2    8    6     5     4    2.2957E+00  4.9455E-01   1.8011E+00  0.000E+00  0.000E+00  0.000E+00  1.04664E+03  3.856E-01  5.843E+00  1.461E-01  1.129E+00
   2    9    6     6     1    3.1701E+00  1.8340E+00   1.3361E+00  0.000E+00  0.000E+00  0.000E+00  1.04278E+03  5.669E-02  1.200E+01  6.000E-01  1.019E+00
   2   10    7     6     2    1.3361E+00  0.0000E+00   1.3361E+00  0.000E+00  0.000E+00  0.000E+00  1.03818E+03  0.000E+00  1.200E+01  6.000E-01  1.000E+00
   2   11    7     6     3    1.3361E+00  0.0000E+00   1.3361E+00  0.000E+00  0.000E+00  0.000E+00  1.03364E+03  0.000E+00  1.200E+01  6.000E-01  6.609E-01
   2   12    7     6     4    1.3361E+00 -4.3557E-02   1.3796E+00  0.000E+00  0.000E+00  0.000E+00  1.02911E+03  1.783E-02  1.200E+01  6.000E-01 -2.420E-02
   2   13    7     6     5    1.3796E+00 -7.8798E-01   2.1676E+00  0.000E+00  0.000E+00  0.000E+00  1.02602E+03  1.078E-01  1.200E+01  2.400E-01 -1.094E+00
   2   14    9     7     1    1.5000E+02  2.9123E+00   1.4709E+02  0.000E+00  0.000E+00  0.000E+00  1.03986E+03  2.284E+00  5.528E+01  5.591E+00  1.736E-01
   2   13    8     7     2    1.4709E+02  3.6886E+00   1.4340E+02  0.000E+00  0.000E+00  0.000E+00  1.03477E+03  2.266E+00  5.520E+01  6.140E+00  2.002E-01
   2   13    7     7     3    1.4340E+02  2.0606E+00   1.4134E+02  0.000E+00  0.000E+00  0.000E+00  1.02967E+03  2.250E+00  5.513E+01  5.575E+00  1.232E-01
   2   13    6     8     1    1.4351E+02  1.6654E-02   1.4350E+02  1.297E-02  0.000E+00  0.000E+00  1.02464E+03  2.761E+00  4.003E+01  4.079E+00  1.361E-03
   2   13    5     8     2    1.4350E+02 -3.0657E+00   1.4658E+02  1.297E-02  0.000E+00  0.000E+00  1.01840E+03  2.772E+00  4.019E+01  4.096E+00 -2.495E-01
   2   13    4     8     3    1.4658E+02 -5.7786E+00   1.5237E+02  1.297E-02  0.000E+00  0.000E+00  1.01218E+03  2.804E+00  4.065E+01  4.143E+00 -4.650E-01
   2   13    3     8     4    1.5237E+02 -6.1836E+00   1.5857E+02  1.297E-02  0.000E+00  0.000E+00  1.00597E+03  2.846E+00  4.126E+01  4.205E+00 -4.902E-01
   2   13    2     8     5    1.5857E+02 -3.6846E+00   1.6227E+02  1.297E-02  0.000E+00  0.000E+00  9.99755E+02  2.880E+00  4.175E+01  4.255E+00 -2.886E-01
   2   13    1     8     6    1.6227E+02 -2.3930E+00   1.6467E+02  7.783E-03  0.000E+00  0.000E+00  9.94775E+02  2.900E+00  4.205E+01  2.571E+00 -3.102E-01
   2    4    5     9     1    0.0000E+00  0.0000E+00   0.0000E+00  0.000E+00  0.000E+00  0.000E+00  1.06000E+03  1.185E-04  2.000E+01  2.000E-03 -1.334E-01
   2    4    5    10     1    0.0000E+00  0.0000E+00   0.0000E+00  0.000E+00  0.000E+00  0.000E+00  1.08000E+03  0.000E+00  2.000E+01  2.000E-03  1.000E+00



 ..........LAKE  1 IS DRY..........

     SECTIONS OF THE LAKE BOTTOM HAVE BECOME DRY.  THE DRYSECTIONS
     LIE ABOVE THE FOLLOWING  1 AQUIFER CELLS (LAYER,ROW,COLUMN):
     (  2,  4,  5)  (

 PERIOD    11     TIME STEP    10     TIME STEP LENGTH  1.7520E+05
 PERIOD TIME  1.7520E+06     TOTAL SIMULATION TIME  2.8032E+07


                 HYDROLOGIC BUDGET SUMMARIES FOR SIMULATED LAKES
     (ALL FLUID FLUXES ARE VOLUMES ADDED TO THE LAKE DURING PRESENT TIME STEP)
     ----------------------------------------------------------------------------------------
 LAKE    STAGE         VOLUME     VOL. CHANGE      PRECIP     EVAPORATION    SPECIFIED RUNOFF     COMPUTED RUNOFF    TOTAL RUNOFF
   1  1.074500E+03  0.000000E+00  0.000000E+00  0.000000E+00  1.380738E+01   0.000000E+00          0.000000E+00      0.000000E+00

            GROUND WATER            SURFACE WATER        WATER          UZF INFIL.
 LAKE    INFLOW     OUTFLOW      INFLOW     OUTFLOW       USE        FROM LAKE
   1  0.0000E+00  0.0000E+00  0.0000E+00  0.0000E+00  0.0000E+00       0.0000E+00

      CONNECTED LAKE   TIME-STEP         STAGE-CHANGE          PERCENT
 LAKE    INFLUX      SURFACE AREA   TIME STEP  CUMULATIVE    DISCREPANCY
   1   0.0000E+00     0.0000E+00  -1.3306E-03  7.4458E-04    -100.000
 --------------------------------------------------------------------------------



            CUMULATIVE HYDROLOGIC BUDGET SUMMARIES FOR SIMULATED LAKES
     (ALL FLUID FLUXES ARE SUMS OF VOLUMES ADDED TO THE LAKE SINCE INITIAL TIME)
     ---------------------------------------------------------------------------
 LAKE       PRECIP       EVAP     SPECIFIED RUNOFF   COMPUTED RUNOFF   TOTAL RUNOFF
   1     0.0000E+00  1.6028E+06       0.0000E+00       0.0000E+00       0.0000E+00

            GROUND WATER            SURFACE WATER       UZF INFIL.
 LAKE    INFLOW     OUTFLOW      INFLOW     OUTFLOW     FROM LAKE
   1  0.0000E+00  0.0000E+00  1.9325E+08  4.8784E+07    1.4286E+08

         WATER    CONNECTED LAKE   CHANGE       PERCENT
 LAKE     USE         INFLUX       IN VOL.    DISCREPANCY
   1   0.0000E+00   0.0000E+00   0.0000E+00     -0.000
 --------------------------------------------------------------------------------

 UBDSV3 SAVING "           GW ET" ON UNIT  61 AT TIME STEP    10, STRESS PERIOD  11
 UBDSV3 SAVING "    UZF RECHARGE" ON UNIT  61 AT TIME STEP    10, STRESS PERIOD  11
 UBDSV3 SAVING " SURFACE LEAKAGE" ON UNIT  61 AT TIME STEP    10, STRESS PERIOD  11
 UBDSV3 SAVING "       HORT+DUNN" ON UNIT  61 AT TIME STEP    10, STRESS PERIOD  11
 UBDSV3 SAVING "  STORAGE CHANGE" ON UNIT  61 AT TIME STEP    10, STRESS PERIOD  11


UNSATURATED ZONE PACKAGE VOLUMETRIC BUDGET FOR  TIME STEP    10 STRESS PERIOD   11
  ------------------------------------------------------------------------------



     CUMULATIVE VOLUMES      L**3       RATES FOR THIS TIME STEP      L**3/T
     ------------------                 ------------------------

           IN:                                      IN:
           ---                                      ---
        INFILTRATION =  1622459158.2995          INFILTRATION =           8.4463

          OUT:                                     OUT:
          ----                                     ----
              UZF ET =  1542430585.8563                UZF ET =          15.9886
        UZF RECHARGE =   723124404.0967          UZF RECHARGE =           3.5938

            IN - OUT =  -643095831.6535              IN - OUT =         -11.1361

          STORAGE:                                 STORAGE:
          --------                                 --------
      STORAGE CHANGE =  -643100080.9938        STORAGE CHANGE =         -11.1345

 PERCENT DISCREPANCY IS DIFFERENCE BETWEEN IN-OUT MINUS CHANGE IN STORAGE
 DIVIDED BY THE AVERAGE OF IN AND OUT TIMES 100

 PERCENT DISCREPANCY =           0.00     PERCENT DISCREPANCY =          -0.01






1
  VOLUMETRIC BUDGET FOR ENTIRE MODEL AT END OF TIME STEP   10, STRESS PERIOD  11
  ------------------------------------------------------------------------------

     CUMULATIVE VOLUMES      L**3       RATES FOR THIS TIME STEP      L**3/T
     ------------------                 ------------------------

           IN:                                      IN:
           ---                                      ---
             STORAGE =   266945440.0000               STORAGE =          38.6997
       CONSTANT HEAD =           0.0000         CONSTANT HEAD =           0.0000
               WELLS =           0.0000                 WELLS =           0.0000
     HEAD DEP BOUNDS =     6014097.0000       HEAD DEP BOUNDS =           0.2150
      STREAM LEAKAGE =  2058854912.0000        STREAM LEAKAGE =          36.3421
       LAKE  SEEPAGE =           0.0000         LAKE  SEEPAGE =           0.0000
        UZF RECHARGE =   723124416.0000          UZF RECHARGE =           3.5938
               GW ET =           0.0000                 GW ET =           0.0000
     SURFACE LEAKAGE =           0.0000       SURFACE LEAKAGE =           0.0000

            TOTAL IN =  3054938880.0000              TOTAL IN =          78.8505

          OUT:                                     OUT:
          ----                                     ----
             STORAGE =  1733856256.0000               STORAGE =           9.1052
       CONSTANT HEAD =           0.0000         CONSTANT HEAD =           0.0000
               WELLS =   367920000.0000                 WELLS =          30.0000
     HEAD DEP BOUNDS =     8525697.0000       HEAD DEP BOUNDS =           0.2928
      STREAM LEAKAGE =   517484576.0000        STREAM LEAKAGE =          21.9370
       LAKE  SEEPAGE =           0.0000         LAKE  SEEPAGE =           0.0000
        UZF RECHARGE =           0.0000          UZF RECHARGE =           0.0000
               GW ET =   425372064.0000                 GW ET =          18.8943
     SURFACE LEAKAGE =    88744240.0000       SURFACE LEAKAGE =       6.8955E-02

           TOTAL OUT =  3141902848.0000             TOTAL OUT =          80.2983

            IN - OUT =   -86963968.0000              IN - OUT =          -1.4478

 PERCENT DISCREPANCY =          -2.81     PERCENT DISCREPANCY =          -1.82






         TIME SUMMARY AT END OF TIME STEP   10 IN STRESS PERIOD   11
                    SECONDS     MINUTES      HOURS       DAYS        YEARS
                    -----------------------------------------------------------
   TIME STEP LENGTH 1.75200E+05  2920.0      48.667      2.0278     5.55175E-03
 STRESS PERIOD TIME 1.75200E+06  29200.      486.67      20.278     5.55175E-02
         TOTAL TIME 2.80320E+07 4.67200E+05  7786.7      324.44     0.88828    
1
 
 SOLVING FOR HEAD 
                                                   Max.-Head-Change                         Max.-Flux-Residual
  Residual-Control   Outer-Iter.   Inner-Iter.     Column Row Layer    Maximum-Head-Change  Column Row Layer    Maximum-Flux-Residual          L2-NORM 
          0                 1           2             3    3     2      -0.1015433924E+00       3    3    2        -0.2741123923E+01      0.7469130123E+01
          0                 2           2             3    3     2       0.9563408945E-02       3    3    2         0.2683865156E+00      0.7482499171E+00
          0                 3           1             3    3     2      -0.5340594594E-03       3    3    2        -0.1556314647E-01      0.4285502504E-01

    ------------------------------------------------
       NWT REQUIRED            3 OUTER ITERATIONS 
       AND A TOTAL OF          5 INNER ITERATIONS.
    ------------------------------------------------

 NO OUTPUT CONTROL FOR STRESS PERIOD   11   TIME STEP   11
 ..........LAKE  1 IS DRY..........
 
 SOLVING FOR HEAD 
                                                   Max.-Head-Change                         Max.-Flux-Residual
  Residual-Control   Outer-Iter.   Inner-Iter.     Column Row Layer    Maximum-Head-Change  Column Row Layer    Maximum-Flux-Residual          L2-NORM 
          0                 1           2             3    3     2      -0.1053678450E+00       5    4    2        -0.3000433255E+01      0.7795631328E+01
          0                 2           2             5    4     2       0.1344559177E-01       5    4    2         0.4033990380E+00      0.8138595542E+00
          0                 3           1             5    4     2      -0.7774229426E-03       5    4    2        -0.2420499559E-01      0.4874821369E-01

    ------------------------------------------------
       NWT REQUIRED            3 OUTER ITERATIONS 
       AND A TOTAL OF          5 INNER ITERATIONS.
    ------------------------------------------------

 NO OUTPUT CONTROL FOR STRESS PERIOD   11   TIME STEP   12
 ..........LAKE  1 IS DRY..........
 
 SOLVING FOR HEAD 
                                                   Max.-Head-Change                         Max.-Flux-Residual
  Residual-Control   Outer-Iter.   Inner-Iter.     Column Row Layer    Maximum-Head-Change  Column Row Layer    Maximum-Flux-Residual          L2-NORM 
          0                 1           2             8    4     2      -0.1240083994E+00       3    3    2        -0.2981017861E+01      0.7922605276E+01
          0                 2           2             5    4     2       0.1239004049E-01       5    4    2         0.3692969173E+00      0.8089777302E+00
          0                 3           1             5    4     2      -0.7163730443E-03       5    4    2        -0.2215867214E-01      0.4733249171E-01

    ------------------------------------------------
       NWT REQUIRED            3 OUTER ITERATIONS 
       AND A TOTAL OF          5 INNER ITERATIONS.
    ------------------------------------------------

 NO OUTPUT CONTROL FOR STRESS PERIOD   11   TIME STEP   13
 ..........LAKE  1 IS DRY..........
 
 SOLVING FOR HEAD 
                                                   Max.-Head-Change                         Max.-Flux-Residual
  Residual-Control   Outer-Iter.   Inner-Iter.     Column Row Layer    Maximum-Head-Change  Column Row Layer    Maximum-Flux-Residual          L2-NORM 
          0                 1           2             8    4     2      -0.1213914426E+00       3    3    2        -0.2879892218E+01      0.7671183564E+01
          0                 2           2             5    4     2       0.1148160604E-01       5    4    2         0.3402282406E+00      0.7805733795E+00
          0                 3           1             5    4     2      -0.6638237698E-03       5    4    2        -0.2041440338E-01      0.4564577846E-01

    ------------------------------------------------
       NWT REQUIRED            3 OUTER ITERATIONS 
       AND A TOTAL OF          5 INNER ITERATIONS.
    ------------------------------------------------

 NO OUTPUT CONTROL FOR STRESS PERIOD   11   TIME STEP   14
 ..........LAKE  1 IS DRY..........
 
 SOLVING FOR HEAD 
                                                   Max.-Head-Change                         Max.-Flux-Residual
  Residual-Control   Outer-Iter.   Inner-Iter.     Column Row Layer    Maximum-Head-Change  Column Row Layer    Maximum-Flux-Residual          L2-NORM 
          0                 1           2             8    4     2      -0.1187970809E+00       3    3    2        -0.2787051064E+01      0.7458731353E+01
          0                 2           2             5    4     2       0.1070174023E-01       5    4    2         0.3153374317E+00      0.7555698385E+00
          0                 3           1             5    4     2      -0.6188006904E-03       5    4    2        -0.1892083157E-01      0.4421061281E-01

    ------------------------------------------------
       NWT REQUIRED            3 OUTER ITERATIONS 
       AND A TOTAL OF          5 INNER ITERATIONS.
    ------------------------------------------------

 OUTPUT CONTROL FOR STRESS PERIOD   11   TIME STEP   15
    PRINT BUDGET
    PRINT HEAD FOR ALL LAYERS
    SAVE HEAD FOR ALL LAYERS
    SAVE BUDGET

            WELLS   PERIOD   11   STEP  15
 WELL      1   LAYER   2   ROW     6   COL     4   RATE    -3.00000    
 WELL      2   LAYER   2   ROW     6   COL     5   RATE    -3.00000    
 WELL      3   LAYER   2   ROW     7   COL     4   RATE    -3.00000    
 WELL      4   LAYER   2   ROW     7   COL     5   RATE    -3.00000    
 WELL      5   LAYER   2   ROW     8   COL     4   RATE    -3.00000    
 WELL      6   LAYER   2   ROW     8   COL     5   RATE    -3.00000    
 WELL      7   LAYER   2   ROW     9   COL     4   RATE    -3.00000    
 WELL      8   LAYER   2   ROW     9   COL     5   RATE    -3.00000    
 WELL      9   LAYER   2   ROW    10   COL     4   RATE    -3.00000    
 WELL     10   LAYER   2   ROW    10   COL     5   RATE    -3.00000    

  HEAD DEP BOUNDS   PERIOD   11   STEP    15
 BOUNDARY      1   LAYER   2   ROW    13   COL     1   RATE   -0.291600    
 BOUNDARY      2   LAYER   2   ROW    14   COL     9   RATE    0.214990    



 STREAM LISTING     PERIOD     11   STEP       15

 LAYER ROW COL. STREAM  RCH.  FLOW INTO     FLOW TO   FLOW OUT OF   OVRLND.     DIRECT     STREAM       STREAM     STREAM     STREAM   STREAMBED  STREAMBED
                SEG.NO.  NO.  STRM. RCH.    AQUIFER    STRM. RCH.    RUNOFF     PRECIP       ET          HEAD       DEPTH      WIDTH   CONDCTNC.   GRADIENT

   2    1    1     1     1    1.4000E+01  5.7928E-01   1.3421E+01  0.000E+00  0.000E+00  0.000E+00  1.09403E+03  9.861E-01  9.945E+00  4.475E-01  4.315E-01
   2    2    2     1     2    1.3421E+01  2.2043E+00   1.1216E+01  0.000E+00  0.000E+00  0.000E+00  1.08901E+03  9.560E-01  9.429E+00  6.600E-01  1.113E+00
   2    3    3     1     3    1.1216E+01  2.0125E+00   9.2039E+00  0.000E+00  0.000E+00  0.000E+00  1.08332E+03  9.054E-01  8.589E+00  5.153E-01  1.302E+00
   2    3    4     1     4    9.2039E+00  1.6492E+00   7.5548E+00  0.000E+00  0.000E+00  0.000E+00  1.07826E+03  8.490E-01  7.720E+00  4.285E-01  1.283E+00
   2    4    5     2     1    0.0000E+00  0.0000E+00   0.0000E+00  0.000E+00  0.000E+00  0.000E+00  1.07193E+03  0.000E+00  1.200E+01  7.800E-01  1.000E+00
   2    5    6     2     2    0.0000E+00  0.0000E+00   0.0000E+00  0.000E+00  0.000E+00  0.000E+00  1.06651E+03  0.000E+00  1.200E+01  6.000E-01  1.000E+00
   2    6    6     2     3    0.0000E+00  0.0000E+00   0.0000E+00  0.000E+00  0.000E+00  0.000E+00  1.06179E+03  0.000E+00  1.200E+01  6.000E-01  1.000E+00
   2    7    6     2     4    0.0000E+00  0.0000E+00   0.0000E+00  0.000E+00  0.000E+00  0.000E+00  1.05708E+03  0.000E+00  1.200E+01  6.000E-01  1.000E+00
   2    8    6     2     5    0.0000E+00  0.0000E+00   0.0000E+00  0.000E+00  0.000E+00  0.000E+00  1.05236E+03  0.000E+00  1.200E+01  6.000E-01  1.000E+00
   2    3    5     3     1    7.5548E+00  2.8252E+00   4.7296E+00  0.000E+00  0.000E+00  0.000E+00  1.07555E+03  1.909E+00  9.636E+00  7.227E-01  1.955E+00
   2    3    6     3     2    4.7296E+00  2.4905E+00   2.2391E+00  0.000E+00  0.000E+00  0.000E+00  1.07264E+03  1.727E+00  8.909E+00  6.682E-01  1.864E+00
   2    3    7     3     3    2.2391E+00  1.9718E+00   2.6725E-01  0.000E+00  0.000E+00  0.000E+00  1.06987E+03  1.555E+00  8.218E+00  5.547E-01  1.777E+00
   2    4    8     3     4    2.6725E-01  2.6725E-01   0.0000E+00  0.000E+00  0.000E+00  0.000E+00  1.06682E+03  0.000E+00  7.455E+00  6.709E-01  1.682E+00
   2    5    8     3     5    0.0000E+00  0.0000E+00   0.0000E+00  0.000E+00  0.000E+00  0.000E+00  1.06245E+03  0.000E+00  6.655E+00  4.991E-01  1.000E+00
   2    6    8     3     6    0.0000E+00  0.0000E+00   0.0000E+00  0.000E+00  0.000E+00  0.000E+00  1.06055E+03  0.000E+00  6.145E+00  1.844E-01  1.000E+00
   2    5   10     4     1    1.0000E+01  9.0525E-01   9.0947E+00  0.000E+00  0.000E+00  0.000E+00  1.07835E+03  6.210E-01  1.000E+01  2.500E-01  1.207E+00
   2    5    9     4     2    9.0947E+00  1.7835E+00   7.3113E+00  0.000E+00  0.000E+00  0.000E+00  1.07148E+03  5.670E-01  1.000E+01  5.000E-01  1.189E+00
   2    6    8     4     3    7.3113E+00  1.2257E+00   6.0855E+00  0.000E+00  0.000E+00  0.000E+00  1.06368E+03  5.021E-01  1.000E+01  3.500E-01  1.167E+00
   2    6    8     5     1    6.0855E+00  1.4716E+00   4.6139E+00  0.000E+00  0.000E+00  0.000E+00  1.05854E+03  5.396E-01  1.039E+01  4.158E-01  1.180E+00
   2    7    7     5     2    4.6139E+00  1.4897E+00   3.1242E+00  0.000E+00  0.000E+00  0.000E+00  1.05398E+03  4.817E-01  8.557E+00  4.279E-01  1.161E+00
   2    8    7     5     3    3.1242E+00  8.2855E-01   2.2957E+00  0.000E+00  0.000E+00  0.000E+00  1.04968E+03  4.253E-01  6.911E+00  2.419E-01  1.142E+00
   2    8    6     5     4    2.2957E+00  4.9455E-01   1.8011E+00  0.000E+00  0.000E+00  0.000E+00  1.04664E+03  3.856E-01  5.843E+00  1.461E-01  1.129E+00
   2    9    6     6     1    1.8011E+00  1.8011E+00   0.0000E+00  0.000E+00  0.000E+00  0.000E+00  1.04278E+03  5.669E-02  1.200E+01  6.000E-01  1.019E+00
   2   10    7     6     2    0.0000E+00  0.0000E+00   0.0000E+00  0.000E+00  0.000E+00  0.000E+00  1.03818E+03  0.000E+00  1.200E+01  6.000E-01  1.000E+00
   2   11    7     6     3    0.0000E+00  0.0000E+00   0.0000E+00  0.000E+00  0.000E+00  0.000E+00  1.03364E+03  0.000E+00  1.200E+01  6.000E-01  7.256E-01
   2   12    7     6     4    0.0000E+00  0.0000E+00   0.0000E+00  0.000E+00  0.000E+00  0.000E+00  1.02909E+03  0.000E+00  1.200E+01  6.000E-01  4.002E-03
   2   13    7     6     5    0.0000E+00 -7.8491E-01   7.8491E-01  0.000E+00  0.000E+00  0.000E+00  1.02601E+03  1.010E-01  1.200E+01  2.400E-01 -1.090E+00
   2   14    9     7     1    1.5000E+02  2.9175E+00   1.4708E+02  0.000E+00  0.000E+00  0.000E+00  1.03986E+03  2.284E+00  5.528E+01  5.591E+00  1.739E-01
   2   13    8     7     2    1.4708E+02  3.7112E+00   1.4337E+02  0.000E+00  0.000E+00  0.000E+00  1.03477E+03  2.266E+00  5.520E+01  6.140E+00  2.015E-01
   2   13    7     7     3    1.4337E+02  2.1673E+00   1.4120E+02  0.000E+00  0.000E+00  0.000E+00  1.02967E+03  2.250E+00  5.512E+01  5.574E+00  1.296E-01
   2   13    6     8     1    1.4199E+02  1.0361E-01   1.4190E+02  1.089E-02  0.000E+00  0.000E+00  1.02463E+03  2.759E+00  4.001E+01  4.077E+00  8.471E-03
   2   13    5     8     2    1.4190E+02 -3.0135E+00   1.4492E+02  1.089E-02  0.000E+00  0.000E+00  1.01839E+03  2.770E+00  4.016E+01  4.093E+00 -2.454E-01
   2   13    4     8     3    1.4492E+02 -5.7574E+00   1.5069E+02  1.089E-02  0.000E+00  0.000E+00  1.01218E+03  2.801E+00  4.062E+01  4.139E+00 -4.637E-01
   2   13    3     8     4    1.5069E+02 -6.1482E+00   1.5685E+02  1.089E-02  0.000E+00  0.000E+00  1.00597E+03  2.843E+00  4.123E+01  4.201E+00 -4.878E-01
   2   13    2     8     5    1.5685E+02 -3.6132E+00   1.6047E+02  1.089E-02  0.000E+00  0.000E+00  9.99752E+02  2.877E+00  4.171E+01  4.251E+00 -2.833E-01
   2   13    1     8     6    1.6047E+02 -2.3161E+00   1.6279E+02  6.535E-03  0.000E+00  0.000E+00  9.94772E+02  2.897E+00  4.200E+01  2.568E+00 -3.006E-01
   2    4    5     9     1    0.0000E+00  0.0000E+00   0.0000E+00  0.000E+00  0.000E+00  0.000E+00  1.06000E+03  1.972E-05  2.000E+01  2.000E-03 -6.503E-03
   2    4    5    10     1    0.0000E+00  0.0000E+00   0.0000E+00  0.000E+00  0.000E+00  0.000E+00  1.08000E+03  0.000E+00  2.000E+01  2.000E-03  1.000E+00



 ..........LAKE  1 IS DRY..........

     SECTIONS OF THE LAKE BOTTOM HAVE BECOME DRY.  THE DRYSECTIONS
     LIE ABOVE THE FOLLOWING  1 AQUIFER CELLS (LAYER,ROW,COLUMN):
     (  2,  4,  5)  (

 PERIOD    11     TIME STEP    15     TIME STEP LENGTH  1.7520E+05
 PERIOD TIME  2.6280E+06     TOTAL SIMULATION TIME  2.8908E+07


                 HYDROLOGIC BUDGET SUMMARIES FOR SIMULATED LAKES
     (ALL FLUID FLUXES ARE VOLUMES ADDED TO THE LAKE DURING PRESENT TIME STEP)
     ----------------------------------------------------------------------------------------
 LAKE    STAGE         VOLUME     VOL. CHANGE      PRECIP     EVAPORATION    SPECIFIED RUNOFF     COMPUTED RUNOFF    TOTAL RUNOFF
   1  1.074500E+03  0.000000E+00  0.000000E+00  0.000000E+00  7.010812E-01   0.000000E+00          0.000000E+00      0.000000E+00

            GROUND WATER            SURFACE WATER        WATER          UZF INFIL.
 LAKE    INFLOW     OUTFLOW      INFLOW     OUTFLOW       USE        FROM LAKE
   1  0.0000E+00  0.0000E+00  0.0000E+00  0.0000E+00  0.0000E+00       0.0000E+00

      CONNECTED LAKE   TIME-STEP         STAGE-CHANGE          PERCENT
 LAKE    INFLUX      SURFACE AREA   TIME STEP  CUMULATIVE    DISCREPANCY
   1   0.0000E+00     0.0000E+00  -1.3306E-03  7.4458E-04    -100.000
 --------------------------------------------------------------------------------



            CUMULATIVE HYDROLOGIC BUDGET SUMMARIES FOR SIMULATED LAKES
     (ALL FLUID FLUXES ARE SUMS OF VOLUMES ADDED TO THE LAKE SINCE INITIAL TIME)
     ---------------------------------------------------------------------------
 LAKE       PRECIP       EVAP     SPECIFIED RUNOFF   COMPUTED RUNOFF   TOTAL RUNOFF
   1     0.0000E+00  1.6029E+06       0.0000E+00       0.0000E+00       0.0000E+00

            GROUND WATER            SURFACE WATER       UZF INFIL.
 LAKE    INFLOW     OUTFLOW      INFLOW     OUTFLOW     FROM LAKE
   1  0.0000E+00  0.0000E+00  1.9325E+08  4.8784E+07    1.4286E+08

         WATER    CONNECTED LAKE   CHANGE       PERCENT
 LAKE     USE         INFLUX       IN VOL.    DISCREPANCY
   1   0.0000E+00   0.0000E+00   0.0000E+00     -0.000
 --------------------------------------------------------------------------------

 UBDSV3 SAVING "           GW ET" ON UNIT  61 AT TIME STEP    15, STRESS PERIOD  11
 UBDSV3 SAVING "    UZF RECHARGE" ON UNIT  61 AT TIME STEP    15, STRESS PERIOD  11
 UBDSV3 SAVING " SURFACE LEAKAGE" ON UNIT  61 AT TIME STEP    15, STRESS PERIOD  11
 UBDSV3 SAVING "       HORT+DUNN" ON UNIT  61 AT TIME STEP    15, STRESS PERIOD  11
 UBDSV3 SAVING "  STORAGE CHANGE" ON UNIT  61 AT TIME STEP    15, STRESS PERIOD  11


UNSATURATED ZONE PACKAGE VOLUMETRIC BUDGET FOR  TIME STEP    15 STRESS PERIOD   11
  ------------------------------------------------------------------------------



     CUMULATIVE VOLUMES      L**3       RATES FOR THIS TIME STEP      L**3/T
     ------------------                 ------------------------

           IN:                                      IN:
           ---                                      ---
        INFILTRATION =  1629858315.5938          INFILTRATION =           8.4466

          OUT:                                     OUT:
          ----                                     ----
              UZF ET =  1553769594.8218                UZF ET =          10.0170
        UZF RECHARGE =   726072675.0699          UZF RECHARGE =           3.2193

            IN - OUT =  -649983954.2979              IN - OUT =          -4.7897

          STORAGE:                                 STORAGE:
          --------                                 --------
      STORAGE CHANGE =  -649987973.1852        STORAGE CHANGE =          -4.7897

 PERCENT DISCREPANCY IS DIFFERENCE BETWEEN IN-OUT MINUS CHANGE IN STORAGE
 DIVIDED BY THE AVERAGE OF IN AND OUT TIMES 100

 PERCENT DISCREPANCY =           0.00     PERCENT DISCREPANCY =           0.00






1
              HEAD IN LAYER   1 AT END OF TIME STEP    15 IN STRESS PERIOD   11
  -----------------------------------------------------------------------------

           1       2       3       4       5       6       7       8       9      10
 ...................................................................................
   1  6999.00 6999.00 6999.00 6999.00 6999.00 6999.00 6999.00 6999.00 6999.00 6999.00
   2  6999.00 6999.00 6999.00 6999.00 6999.00 6999.00 6999.00 6999.00 6999.00 6999.00
   3  6999.00 6999.00 6999.00 6999.00 6999.00 6999.00 6999.00 6999.00 6999.00 6999.00
   4  6999.00 6999.00 6999.00 6999.00 1074.50 6999.00 6999.00 6999.00 6999.00 6999.00
   5  6999.00 6999.00 6999.00 6999.00 6999.00 6999.00 6999.00 6999.00 6999.00 6999.00
   6  6999.00 6999.00 6999.00 6999.00 6999.00 6999.00 6999.00 6999.00 6999.00 6999.00
   7  6999.00 6999.00 6999.00 6999.00 6999.00 6999.00 6999.00 6999.00 6999.00 6999.00
   8  6999.00 6999.00 6999.00 6999.00 6999.00 6999.00 6999.00 6999.00 6999.00 6999.00
   9  6999.00 6999.00 6999.00 6999.00 6999.00 6999.00 6999.00 6999.00 6999.00 6999.00
  10  6999.00 6999.00 6999.00 6999.00 6999.00 6999.00 6999.00 6999.00 6999.00 6999.00
  11  6999.00 6999.00 6999.00 6999.00 6999.00 6999.00 6999.00 6999.00 6999.00 6999.00
  12  6999.00 6999.00 6999.00 6999.00 6999.00 6999.00 6999.00 6999.00 6999.00 6999.00
  13  6999.00 6999.00 6999.00 6999.00 6999.00 6999.00 6999.00 6999.00 6999.00 6999.00
  14  6999.00 6999.00 6999.00 6999.00 6999.00 6999.00 6999.00 6999.00 6999.00 6999.00
  15  6999.00 6999.00 6999.00 6999.00 6999.00 6999.00 6999.00 6999.00 6999.00 6999.00
1
              HEAD IN LAYER   2 AT END OF TIME STEP    15 IN STRESS PERIOD   11
  -----------------------------------------------------------------------------

           1       2       3       4       5       6       7       8       9      10
 ...................................................................................
   1  1092.74 1089.36 6999.00 6999.00 6999.00 6999.00 6999.00 6999.00 6999.00 6999.00
   2  1088.83 1085.68 1080.61 6999.00 6999.00 1067.77 1066.99 1065.56 6999.00 6999.00
   3  6999.00 1076.15 1073.83 1069.56 1068.39 1067.02 1065.95 1064.05 6999.00 6999.00
   4  1062.30 1065.02 1065.44 1062.21 1060.02 1058.69 1058.54 1060.25 1058.29 6999.00
   5  1058.07 1056.67 1056.49 1055.39 1054.82 1054.44 1053.59 1053.99 1056.36 1058.06
   6  1053.87 1050.83 1049.84 1049.08 1049.27 1050.50 1050.91 1051.98 1053.12 1056.94
   7  1050.88 1045.62 1044.34 1043.85 1044.54 1046.39 1047.67 1048.93 1049.53 6999.00
   8  6999.00 1039.82 1039.27 1039.06 1039.92 1042.06 1043.40 1045.00 1045.42 6999.00
   9  6999.00 1033.77 1033.88 1034.04 1035.13 1037.57 1038.63 1039.18 1041.03 6999.00
  10  6999.00 1027.65 1028.35 1029.23 1030.70 1033.11 1034.46 1035.42 1037.62 1040.75
  11  6999.00 1020.08 1021.55 1024.86 1027.07 1029.55 1031.46 1032.98 1035.27 6999.00
  12  1003.19 1009.90 1014.29 1019.05 1022.80 1026.40 1029.08 1031.55 1034.88 6999.00
  13   995.67 1000.60 1007.43 1013.57 1019.13 1024.61 1029.28 1034.16 1036.73 6999.00
  14  6999.00 1007.12 1010.81 1015.77 1020.86 1025.71 1030.15 1035.19 1039.34 6999.00
  15  6999.00 6999.00 1018.84 1021.61 1025.16 1028.03 6999.00 6999.00 6999.00 6999.00

 HEAD WILL BE SAVED ON UNIT   58 AT END OF TIME STEP   15, STRESS PERIOD   11
1
  VOLUMETRIC BUDGET FOR ENTIRE MODEL AT END OF TIME STEP   15, STRESS PERIOD  11
  ------------------------------------------------------------------------------

     CUMULATIVE VOLUMES      L**3       RATES FOR THIS TIME STEP      L**3/T
     ------------------                 ------------------------

           IN:                                      IN:
           ---                                      ---
             STORAGE =   301925792.0000               STORAGE =          40.4452
       CONSTANT HEAD =           0.0000         CONSTANT HEAD =           0.0000
               WELLS =           0.0000                 WELLS =           0.0000
     HEAD DEP BOUNDS =     6202415.0000       HEAD DEP BOUNDS =           0.2150
      STREAM LEAKAGE =  2088717184.0000        STREAM LEAKAGE =          32.8997
       LAKE  SEEPAGE =           0.0000         LAKE  SEEPAGE =           0.0000
        UZF RECHARGE =   726072704.0000          UZF RECHARGE =           3.2193
               GW ET =           0.0000                 GW ET =           0.0000
     SURFACE LEAKAGE =           0.0000       SURFACE LEAKAGE =           0.0000

            TOTAL IN =  3122917888.0000              TOTAL IN =          76.7792

          OUT:                                     OUT:
          ----                                     ----
             STORAGE =  1739997696.0000               STORAGE =           5.9675
       CONSTANT HEAD =           0.0000         CONSTANT HEAD =           0.0000
               WELLS =   394200000.0000                 WELLS =          30.0000
     HEAD DEP BOUNDS =     8781532.0000       HEAD DEP BOUNDS =           0.2916
      STREAM LEAKAGE =   536528672.0000        STREAM LEAKAGE =          21.6334
       LAKE  SEEPAGE =           0.0000         LAKE  SEEPAGE =           0.0000
        UZF RECHARGE =           0.0000          UZF RECHARGE =           0.0000
               GW ET =   441883520.0000                 GW ET =          18.9095
     SURFACE LEAKAGE =    88798200.0000       SURFACE LEAKAGE =       5.7630E-02

           TOTAL OUT =  3210189824.0000             TOTAL OUT =          76.8596

            IN - OUT =   -87271936.0000              IN - OUT =      -8.0421E-02

 PERCENT DISCREPANCY =          -2.76     PERCENT DISCREPANCY =          -0.10






         TIME SUMMARY AT END OF TIME STEP   15 IN STRESS PERIOD   11
                    SECONDS     MINUTES      HOURS       DAYS        YEARS
                    -----------------------------------------------------------
   TIME STEP LENGTH 1.75200E+05  2920.0      48.667      2.0278     5.55175E-03
 STRESS PERIOD TIME 2.62800E+06  43800.      730.00      30.417     8.32763E-02
         TOTAL TIME 2.89080E+07 4.81800E+05  8030.0      334.58     0.91604    
1
1
                            STRESS PERIOD NO.   12, LENGTH =  0.2102400E+08
                            -----------------------------------------------

                              NUMBER OF TIME STEPS =   120

                               MULTIPLIER FOR DELT =     1.000

                            INITIAL TIME STEP SIZE =   175200.0    

      0 WELLS

 REUSING NON-PARAMETER GHB CELLS FROM LAST STRESS PERIOD

      2 GHB CELLS

 REUSING STREAM SEGMENT DATA FROM LAST STRESS PERIOD



            AREAL INFILTRATION RATE
 READING ON UNIT   19 WITH FORMAT: (10F4.0)            

            1           2           3           4           5           6           7           8           9          10
 ........................................................................................................................
   1   1.0000E-09  2.0000E-09   0.000       0.000       0.000       0.000       0.000       0.000       0.000       0.000    
   2   2.0000E-09  1.0000E-09  2.0000E-09   0.000       0.000      8.0000E-09  8.0000E-09  5.0000E-09   0.000       0.000    
   3    0.000      5.0000E-09  1.0000E-09  1.0000E-09  8.0000E-09  8.0000E-09  5.0000E-09  5.0000E-09   0.000       0.000    
   4   8.0000E-09  5.0000E-09  1.0000E-09  1.0000E-09  1.0000E-09  1.0000E-09  1.0000E-09  1.0000E-09  2.0000E-09   0.000    
   5   8.0000E-09  5.0000E-09  1.0000E-09  1.0000E-09  1.0000E-09  1.0000E-09  1.0000E-09  1.0000E-09  1.0000E-09  1.0000E-09
   6   8.0000E-09  5.0000E-09  5.0000E-09  2.0000E-09  2.0000E-09  1.0000E-09  1.0000E-09  1.0000E-09  1.0000E-09  5.0000E-09
   7   8.0000E-09  5.0000E-09  5.0000E-09  2.0000E-09  2.0000E-09  1.0000E-09  1.0000E-09  2.0000E-09  2.0000E-09   0.000    
   8    0.000      5.0000E-09  5.0000E-09  2.0000E-09  2.0000E-09  1.0000E-09  1.0000E-09  2.0000E-09  5.0000E-09   0.000    
   9    0.000      5.0000E-09  5.0000E-09  2.0000E-09  2.0000E-09  1.0000E-09  1.0000E-09  2.0000E-09  5.0000E-09   0.000    
  10    0.000      5.0000E-09  5.0000E-09  2.0000E-09  2.0000E-09  1.0000E-09  1.0000E-09  2.0000E-09  5.0000E-09  8.0000E-09
  11    0.000      1.0000E-09  1.0000E-09  1.0000E-09  1.0000E-09  1.0000E-09  1.0000E-09  2.0000E-09  5.0000E-09   0.000    
  12   1.0000E-09  1.0000E-09  1.0000E-09  1.0000E-09  1.0000E-09  1.0000E-09  1.0000E-09  1.0000E-09  2.0000E-09   0.000    
  13   1.0000E-09  1.0000E-09  2.0000E-09  2.0000E-09  2.0000E-09  2.0000E-09  2.0000E-09  1.0000E-09  1.0000E-09   0.000    
  14    0.000      2.0000E-09  5.0000E-09  5.0000E-09  5.0000E-09  5.0000E-09  5.0000E-09  2.0000E-09  1.0000E-09   0.000    
  15    0.000       0.000      8.0000E-09  8.0000E-09  8.0000E-09  8.0000E-09   0.000       0.000       0.000       0.000    

USING ET RATE FROM PREVIOUS STRESS PERIOD. CURRENT PERIOD IS:      12

 USING ET EXTINCTION DEPTH FROM PREVIOUS STRESS PERIOD. CURRENT PERIOD IS:      12

 USING EXTINCTION WATER CONTENT FROM PREVIOUS STRESS PERIOD. CURRENT PERIOD IS:      12




 If any subsequent steady-state stress periods, min. and max. stages for each lake will be read in Record 9a.




 REUSING LAKE CONFIGURATION DATA FROM LAST STRESS PERIOD


 LAKE       PRECIP     EVAP     RUNOFF   WITHDRAW   BOTTOM     AREA
----------------------------------------------------------------------
   1     0.000E+00 4.000E-08 0.000E+00  0.000E+00 1.074E+03 2.500E+07




         C               INTERFACE CONDUCTANCES BETWEEN LAKE AND AQUIFER CELLS
   L     O          (IF TYPE = 6, CONDUCTANCE (L^2/T) IS BETWEEN AQUIFER CELL AND OVERLYING LAKE CELL.)
   A     L  L  T    (IF TYPE = 1 TO 4, CONDUCTANCES ARE PER UNIT SATURATED THICKNESS (L/T).)
   Y  R  U  A  Y
   E  O  M  K  P                        LAKEBED      C O N D U C T A N C E S
   R  W  N  E  E     DELTA Y   DELTA X  LEAKANCE   LAKEBED   AQUIFER  COMBINED
 _______________________________________________________________________________
   1  4  4  1  2    5.00E+03  5.00E+03  5.00E-02  2.50E+02  6.00E-03  6.00E-03
   1  3  5  1  3    5.00E+03  5.00E+03  5.00E-02  2.50E+02  1.20E-03  1.20E-03
   2  4  5  1  6    5.00E+03  5.00E+03  5.00E-02  1.25E+06  9.42E+00  9.42E+00
   1  5  5  1  4    5.00E+03  5.00E+03  5.00E-02  2.50E+02  6.00E-03  6.00E-03
   1  4  6  1  1    5.00E+03  5.00E+03  5.00E-02  2.50E+02  6.00E-03  6.00E-03
      LAKE     INFLOWING STREAM SEGMENT
         1                  9

 MAXIMUM NUMBER OF STREAMS INFLOWING TO A LAKE IS    1

      LAKE     OUTFLOWING STREAM SEGMENT
         1                 10

 MAXIMUM NUMBER OF STREAMS OUTFLOWING FROM A LAKE IS    1

 
 SOLVING FOR HEAD 
                                                   Max.-Head-Change                         Max.-Flux-Residual
  Residual-Control   Outer-Iter.   Inner-Iter.     Column Row Layer    Maximum-Head-Change  Column Row Layer    Maximum-Flux-Residual          L2-NORM 
          0                 1           2             3    3     2      -0.9889408589E-01       3    3    2        -0.2657198584E+01      0.8766079705E+01
          0                 2           2             5    4     2       0.1000358691E-01       5    4    2         0.2937080702E+00      0.8846134921E+00
          0                 3           1             5    4     2      -0.5783543532E-03       5    4    2        -0.1762300078E-01      0.5231508177E-01

    ------------------------------------------------
       NWT REQUIRED            3 OUTER ITERATIONS 
       AND A TOTAL OF          5 INNER ITERATIONS.
    ------------------------------------------------

 NO OUTPUT CONTROL FOR STRESS PERIOD   12   TIME STEP    1
 ..........LAKE  1 IS DRY..........
 
 SOLVING FOR HEAD 
                                                   Max.-Head-Change                         Max.-Flux-Residual
  Residual-Control   Outer-Iter.   Inner-Iter.     Column Row Layer    Maximum-Head-Change  Column Row Layer    Maximum-Flux-Residual          L2-NORM 
          0                 1           2             3    3     2      -0.9431110456E-01       3    3    2        -0.2530655769E+01      0.8216711620E+01
          0                 2           2             3    3     2       0.8902673847E-02       3    3    2         0.2480323528E+00      0.8087630009E+00
          0                 3           1             3    3     2      -0.4982595464E-03       3    3    2        -0.1440711035E-01      0.4792221892E-01

    ------------------------------------------------
       NWT REQUIRED            3 OUTER ITERATIONS 
       AND A TOTAL OF          5 INNER ITERATIONS.
    ------------------------------------------------

 NO OUTPUT CONTROL FOR STRESS PERIOD   12   TIME STEP    2
 ..........LAKE  1 IS DRY..........
 
 SOLVING FOR HEAD 
                                                   Max.-Head-Change                         Max.-Flux-Residual
  Residual-Control   Outer-Iter.   Inner-Iter.     Column Row Layer    Maximum-Head-Change  Column Row Layer    Maximum-Flux-Residual          L2-NORM 
          0                 1           2             3    3     2      -0.9164690290E-01       3    3    2        -0.2456423602E+01      0.7811987604E+01
          0                 2           2             3    3     2       0.8654876908E-02       3    3    2         0.2408128291E+00      0.7557507992E+00
          0                 3           1             3    3     2      -0.4845735597E-03       3    3    2        -0.1399323935E-01      0.4418978593E-01

    ------------------------------------------------
       NWT REQUIRED            3 OUTER ITERATIONS 
       AND A TOTAL OF          5 INNER ITERATIONS.
    ------------------------------------------------

 NO OUTPUT CONTROL FOR STRESS PERIOD   12   TIME STEP    3
 ..........LAKE  1 IS DRY..........
 
 SOLVING FOR HEAD 
                                                   Max.-Head-Change                         Max.-Flux-Residual
  Residual-Control   Outer-Iter.   Inner-Iter.     Column Row Layer    Maximum-Head-Change  Column Row Layer    Maximum-Flux-Residual          L2-NORM 
          0                 1           2             3    3     2      -0.8981090390E-01       3    3    2        -0.2404935517E+01      0.7496232348E+01
          0                 2           2             3    3     2       0.8482627810E-02       3    3    2         0.2358029682E+00      0.6972223825E+00
          0                 3           1             3    3     2      -0.4750499873E-03       3    3    2        -0.1370586664E-01      0.3833758596E-01

    ------------------------------------------------
       NWT REQUIRED            3 OUTER ITERATIONS 
       AND A TOTAL OF          5 INNER ITERATIONS.
    ------------------------------------------------

 NO OUTPUT CONTROL FOR STRESS PERIOD   12   TIME STEP    4
 ..........LAKE  1 IS DRY..........
 
 SOLVING FOR HEAD 
                                                   Max.-Head-Change                         Max.-Flux-Residual
  Residual-Control   Outer-Iter.   Inner-Iter.     Column Row Layer    Maximum-Head-Change  Column Row Layer    Maximum-Flux-Residual          L2-NORM 
          0                 1           2             7    3     2      -0.1418357466E+00       3    3    2        -0.2724139964E+01      0.7903266161E+01
          0                 2           2             8    4     2       0.1180253413E-01       3    3    2         0.2665299800E+00      0.7059258520E+00
          0                 3           1             8    4     2      -0.6823911383E-03       3    3    2        -0.1543746033E-01      0.3904713865E-01

    ------------------------------------------------
       NWT REQUIRED            3 OUTER ITERATIONS 
       AND A TOTAL OF          5 INNER ITERATIONS.
    ------------------------------------------------

 OUTPUT CONTROL FOR STRESS PERIOD   12   TIME STEP    5
    PRINT BUDGET
    SAVE BUDGET

  HEAD DEP BOUNDS   PERIOD   12   STEP     5
 BOUNDARY      1   LAYER   2   ROW    13   COL     1   RATE   -0.290734    
 BOUNDARY      2   LAYER   2   ROW    14   COL     9   RATE    0.215070    



 STREAM LISTING     PERIOD     12   STEP        5

 LAYER ROW COL. STREAM  RCH.  FLOW INTO     FLOW TO   FLOW OUT OF   OVRLND.     DIRECT     STREAM       STREAM     STREAM     STREAM   STREAMBED  STREAMBED
                SEG.NO.  NO.  STRM. RCH.    AQUIFER    STRM. RCH.    RUNOFF     PRECIP       ET          HEAD       DEPTH      WIDTH   CONDCTNC.   GRADIENT

   2    1    1     1     1    1.1000E+01  5.4858E-01   1.0451E+01  0.000E+00  0.000E+00  0.000E+00  1.09397E+03  9.184E-01  8.801E+00  3.961E-01  4.617E-01
   2    2    2     1     2    1.0451E+01  2.0272E+00   8.4242E+00  0.000E+00  0.000E+00  0.000E+00  1.08894E+03  8.830E-01  8.237E+00  5.766E-01  1.172E+00
   2    3    3     1     3    8.4242E+00  1.6768E+00   6.7474E+00  0.000E+00  0.000E+00  0.000E+00  1.08324E+03  8.215E-01  7.313E+00  4.388E-01  1.274E+00
   2    3    4     1     4    6.7474E+00  1.3650E+00   5.3823E+00  0.000E+00  0.000E+00  0.000E+00  1.07818E+03  7.731E-01  6.518E+00  3.618E-01  1.258E+00
   2    4    5     2     1    0.0000E+00  0.0000E+00   0.0000E+00  0.000E+00  0.000E+00  0.000E+00  1.07193E+03  0.000E+00  1.200E+01  7.800E-01  1.000E+00
   2    5    6     2     2    0.0000E+00  0.0000E+00   0.0000E+00  0.000E+00  0.000E+00  0.000E+00  1.06651E+03  0.000E+00  1.200E+01  6.000E-01  1.000E+00
   2    6    6     2     3    0.0000E+00  0.0000E+00   0.0000E+00  0.000E+00  0.000E+00  0.000E+00  1.06179E+03  0.000E+00  1.200E+01  6.000E-01  1.000E+00
   2    7    6     2     4    0.0000E+00  0.0000E+00   0.0000E+00  0.000E+00  0.000E+00  0.000E+00  1.05708E+03  0.000E+00  1.200E+01  6.000E-01  1.000E+00
   2    8    6     2     5    0.0000E+00  0.0000E+00   0.0000E+00  0.000E+00  0.000E+00  0.000E+00  1.05236E+03  0.000E+00  1.200E+01  6.000E-01  1.000E+00
   2    3    5     3     1    5.3823E+00  2.8252E+00   2.5572E+00  0.000E+00  0.000E+00  0.000E+00  1.07555E+03  1.909E+00  9.636E+00  7.227E-01  1.955E+00
   2    3    6     3     2    2.5572E+00  2.4905E+00   6.6644E-02  0.000E+00  0.000E+00  0.000E+00  1.07264E+03  1.727E+00  8.909E+00  6.682E-01  1.864E+00
   2    3    7     3     3    6.6644E-02  6.6644E-02   0.0000E+00  0.000E+00  0.000E+00  0.000E+00  1.06987E+03  0.000E+00  8.218E+00  5.547E-01  1.777E+00
   2    4    8     3     4    0.0000E+00  0.0000E+00   0.0000E+00  0.000E+00  0.000E+00  0.000E+00  1.06545E+03  0.000E+00  7.455E+00  6.709E-01  1.000E+00
   2    5    8     3     5    0.0000E+00  0.0000E+00   0.0000E+00  0.000E+00  0.000E+00  0.000E+00  1.06245E+03  0.000E+00  6.655E+00  4.991E-01  1.000E+00
   2    6    8     3     6    0.0000E+00  0.0000E+00   0.0000E+00  0.000E+00  0.000E+00  0.000E+00  1.06055E+03  0.000E+00  6.145E+00  1.844E-01  1.000E+00
   2    5   10     4     1    1.0000E+01  9.0525E-01   9.0947E+00  0.000E+00  0.000E+00  0.000E+00  1.07835E+03  6.210E-01  1.000E+01  2.500E-01  1.207E+00
   2    5    9     4     2    9.0947E+00  1.7835E+00   7.3113E+00  0.000E+00  0.000E+00  0.000E+00  1.07148E+03  5.670E-01  1.000E+01  5.000E-01  1.189E+00
   2    6    8     4     3    7.3113E+00  1.2257E+00   6.0855E+00  0.000E+00  0.000E+00  0.000E+00  1.06368E+03  5.021E-01  1.000E+01  3.500E-01  1.167E+00
   2    6    8     5     1    6.0855E+00  1.4716E+00   4.6139E+00  0.000E+00  0.000E+00  0.000E+00  1.05854E+03  5.396E-01  1.039E+01  4.158E-01  1.180E+00
   2    7    7     5     2    4.6139E+00  1.4897E+00   3.1242E+00  0.000E+00  0.000E+00  0.000E+00  1.05398E+03  4.817E-01  8.557E+00  4.279E-01  1.161E+00
   2    8    7     5     3    3.1242E+00  8.2855E-01   2.2957E+00  0.000E+00  0.000E+00  0.000E+00  1.04968E+03  4.253E-01  6.911E+00  2.419E-01  1.142E+00
   2    8    6     5     4    2.2957E+00  4.9455E-01   1.8011E+00  0.000E+00  0.000E+00  0.000E+00  1.04664E+03  3.856E-01  5.843E+00  1.461E-01  1.129E+00
   2    9    6     6     1    1.8011E+00  1.8011E+00   0.0000E+00  0.000E+00  0.000E+00  0.000E+00  1.04278E+03  5.669E-02  1.200E+01  6.000E-01  1.019E+00
   2   10    7     6     2    0.0000E+00  0.0000E+00   0.0000E+00  0.000E+00  0.000E+00  0.000E+00  1.03818E+03  0.000E+00  1.200E+01  6.000E-01  1.000E+00
   2   11    7     6     3    0.0000E+00  0.0000E+00   0.0000E+00  0.000E+00  0.000E+00  0.000E+00  1.03364E+03  0.000E+00  1.200E+01  6.000E-01  7.780E-01
   2   12    7     6     4    0.0000E+00  0.0000E+00   0.0000E+00  0.000E+00  0.000E+00  0.000E+00  1.02909E+03  0.000E+00  1.200E+01  6.000E-01  3.479E-02
   2   13    7     6     5    0.0000E+00 -7.8112E-01   7.8112E-01  0.000E+00  0.000E+00  0.000E+00  1.02601E+03  1.007E-01  1.200E+01  2.400E-01 -1.085E+00
   2   14    9     7     1    1.5000E+02  2.9291E+00   1.4707E+02  0.000E+00  0.000E+00  0.000E+00  1.03986E+03  2.283E+00  5.528E+01  5.591E+00  1.746E-01
   2   13    8     7     2    1.4707E+02  3.7374E+00   1.4333E+02  0.000E+00  0.000E+00  0.000E+00  1.03477E+03  2.266E+00  5.520E+01  6.140E+00  2.029E-01
   2   13    7     7     3    1.4333E+02  2.2545E+00   1.4108E+02  0.000E+00  0.000E+00  0.000E+00  1.02967E+03  2.250E+00  5.512E+01  5.574E+00  1.348E-01
   2   13    6     8     1    1.4186E+02  1.7131E-01   1.4170E+02  9.599E-03  0.000E+00  0.000E+00  1.02463E+03  2.758E+00  3.999E+01  4.075E+00  1.401E-02
   2   13    5     8     2    1.4170E+02 -2.9782E+00   1.4469E+02  9.599E-03  0.000E+00  0.000E+00  1.01839E+03  2.768E+00  4.014E+01  4.090E+00 -2.427E-01
   2   13    4     8     3    1.4469E+02 -5.7435E+00   1.5044E+02  9.599E-03  0.000E+00  0.000E+00  1.01217E+03  2.800E+00  4.059E+01  4.137E+00 -4.628E-01
   2   13    3     8     4    1.5044E+02 -6.1300E+00   1.5658E+02  9.599E-03  0.000E+00  0.000E+00  1.00597E+03  2.841E+00  4.120E+01  4.198E+00 -4.867E-01
   2   13    2     8     5    1.5658E+02 -3.5684E+00   1.6016E+02  9.599E-03  0.000E+00  0.000E+00  9.99750E+02  2.875E+00  4.168E+01  4.248E+00 -2.800E-01
   2   13    1     8     6    1.6016E+02 -2.2617E+00   1.6242E+02  5.759E-03  0.000E+00  0.000E+00  9.94770E+02  2.895E+00  4.197E+01  2.566E+00 -2.938E-01
   2    4    5     9     1    0.0000E+00  0.0000E+00   0.0000E+00  0.000E+00  0.000E+00  0.000E+00  1.06000E+03  0.000E+00  2.000E+01  2.000E-03  9.668E-02
   2    4    5    10     1    0.0000E+00  0.0000E+00   0.0000E+00  0.000E+00  0.000E+00  0.000E+00  1.08000E+03  0.000E+00  2.000E+01  2.000E-03  1.000E+00



 ..........LAKE  1 IS DRY..........

     SECTIONS OF THE LAKE BOTTOM HAVE BECOME DRY.  THE DRYSECTIONS
     LIE ABOVE THE FOLLOWING  1 AQUIFER CELLS (LAYER,ROW,COLUMN):
     (  2,  4,  5)  (

 PERIOD    12     TIME STEP     5     TIME STEP LENGTH  1.7520E+05
 PERIOD TIME  8.7600E+05     TOTAL SIMULATION TIME  2.9784E+07


                 HYDROLOGIC BUDGET SUMMARIES FOR SIMULATED LAKES
     (ALL FLUID FLUXES ARE VOLUMES ADDED TO THE LAKE DURING PRESENT TIME STEP)
     ----------------------------------------------------------------------------------------
 LAKE    STAGE         VOLUME     VOL. CHANGE      PRECIP     EVAPORATION    SPECIFIED RUNOFF     COMPUTED RUNOFF    TOTAL RUNOFF
   1  1.074500E+03  0.000000E+00  0.000000E+00  0.000000E+00  0.000000E+00   0.000000E+00          0.000000E+00      0.000000E+00

            GROUND WATER            SURFACE WATER        WATER          UZF INFIL.
 LAKE    INFLOW     OUTFLOW      INFLOW     OUTFLOW       USE        FROM LAKE
   1  0.0000E+00  0.0000E+00  0.0000E+00  0.0000E+00  0.0000E+00       0.0000E+00

      CONNECTED LAKE   TIME-STEP         STAGE-CHANGE          PERCENT
 LAKE    INFLUX      SURFACE AREA   TIME STEP  CUMULATIVE    DISCREPANCY
   1   0.0000E+00     0.0000E+00  -1.3306E-03  7.4458E-04       0.000
 --------------------------------------------------------------------------------



            CUMULATIVE HYDROLOGIC BUDGET SUMMARIES FOR SIMULATED LAKES
     (ALL FLUID FLUXES ARE SUMS OF VOLUMES ADDED TO THE LAKE SINCE INITIAL TIME)
     ---------------------------------------------------------------------------
 LAKE       PRECIP       EVAP     SPECIFIED RUNOFF   COMPUTED RUNOFF   TOTAL RUNOFF
   1     0.0000E+00  1.6029E+06       0.0000E+00       0.0000E+00       0.0000E+00

            GROUND WATER            SURFACE WATER       UZF INFIL.
 LAKE    INFLOW     OUTFLOW      INFLOW     OUTFLOW     FROM LAKE
   1  0.0000E+00  0.0000E+00  1.9325E+08  4.8784E+07    1.4286E+08

         WATER    CONNECTED LAKE   CHANGE       PERCENT
 LAKE     USE         INFLUX       IN VOL.    DISCREPANCY
   1   0.0000E+00   0.0000E+00   0.0000E+00     -0.000
 --------------------------------------------------------------------------------

 UBDSV3 SAVING "           GW ET" ON UNIT  61 AT TIME STEP     5, STRESS PERIOD  12
 UBDSV3 SAVING "    UZF RECHARGE" ON UNIT  61 AT TIME STEP     5, STRESS PERIOD  12
 UBDSV3 SAVING " SURFACE LEAKAGE" ON UNIT  61 AT TIME STEP     5, STRESS PERIOD  12
 UBDSV3 SAVING "       HORT+DUNN" ON UNIT  61 AT TIME STEP     5, STRESS PERIOD  12
 UBDSV3 SAVING "  STORAGE CHANGE" ON UNIT  61 AT TIME STEP     5, STRESS PERIOD  12


UNSATURATED ZONE PACKAGE VOLUMETRIC BUDGET FOR  TIME STEP     5 STRESS PERIOD   12
  ------------------------------------------------------------------------------



     CUMULATIVE VOLUMES      L**3       RATES FOR THIS TIME STEP      L**3/T
     ------------------                 ------------------------

           IN:                                      IN:
           ---                                      ---
        INFILTRATION =  1637257685.3057          INFILTRATION =           8.4468

          OUT:                                     OUT:
          ----                                     ----
              UZF ET =  1561559797.1732                UZF ET =           8.4452
        UZF RECHARGE =   728875597.8330          UZF RECHARGE =           3.4358

            IN - OUT =  -653177709.7005              IN - OUT =          -3.4342

          STORAGE:                                 STORAGE:
          --------                                 --------
      STORAGE CHANGE =  -653191051.3342        STORAGE CHANGE =          -3.4342

 PERCENT DISCREPANCY IS DIFFERENCE BETWEEN IN-OUT MINUS CHANGE IN STORAGE
 DIVIDED BY THE AVERAGE OF IN AND OUT TIMES 100

 PERCENT DISCREPANCY =           0.00     PERCENT DISCREPANCY =           0.00






1
  VOLUMETRIC BUDGET FOR ENTIRE MODEL AT END OF TIME STEP    5, STRESS PERIOD  12
  ------------------------------------------------------------------------------

     CUMULATIVE VOLUMES      L**3       RATES FOR THIS TIME STEP      L**3/T
     ------------------                 ------------------------

           IN:                                      IN:
           ---                                      ---
             STORAGE =   325052352.0000               STORAGE =          27.5972
       CONSTANT HEAD =           0.0000         CONSTANT HEAD =           0.0000
               WELLS =           0.0000                 WELLS =           0.0000
     HEAD DEP BOUNDS =     6390790.0000       HEAD DEP BOUNDS =           0.2151
      STREAM LEAKAGE =  2117686144.0000        STREAM LEAKAGE =          30.0923
       LAKE  SEEPAGE =           0.0000         LAKE  SEEPAGE =           0.0000
        UZF RECHARGE =   728875712.0000          UZF RECHARGE =           3.4358
               GW ET =           0.0000                 GW ET =           0.0000
     SURFACE LEAKAGE =           0.0000       SURFACE LEAKAGE =           0.0000

            TOTAL IN =  3178004992.0000              TOTAL IN =          61.3403

          OUT:                                     OUT:
          ----                                     ----
             STORAGE =  1759340032.0000               STORAGE =          20.6232
       CONSTANT HEAD =           0.0000         CONSTANT HEAD =           0.0000
               WELLS =   394200000.0000                 WELLS =           0.0000
     HEAD DEP BOUNDS =     9036494.0000       HEAD DEP BOUNDS =           0.2907
      STREAM LEAKAGE =   555384576.0000        STREAM LEAKAGE =          21.4629
       LAKE  SEEPAGE =           0.0000         LAKE  SEEPAGE =           0.0000
        UZF RECHARGE =           0.0000          UZF RECHARGE =           0.0000
               GW ET =   458483520.0000                 GW ET =          18.9106
     SURFACE LEAKAGE =    88844816.0000       SURFACE LEAKAGE =       5.0601E-02

           TOTAL OUT =  3265289472.0000             TOTAL OUT =          61.3381

            IN - OUT =   -87284480.0000              IN - OUT =       2.2202E-03

 PERCENT DISCREPANCY =          -2.71     PERCENT DISCREPANCY =           0.00






         TIME SUMMARY AT END OF TIME STEP    5 IN STRESS PERIOD   12
                    SECONDS     MINUTES      HOURS       DAYS        YEARS
                    -----------------------------------------------------------
   TIME STEP LENGTH 1.75200E+05  2920.0      48.667      2.0278     5.55175E-03
 STRESS PERIOD TIME 8.76000E+05  14600.      243.33      10.139     2.77588E-02
         TOTAL TIME 2.97840E+07 4.96400E+05  8273.3      344.72     0.94380    
1
 
 SOLVING FOR HEAD 
                                                   Max.-Head-Change                         Max.-Flux-Residual
  Residual-Control   Outer-Iter.   Inner-Iter.     Column Row Layer    Maximum-Head-Change  Column Row Layer    Maximum-Flux-Residual          L2-NORM 
          0                 1           2             7    3     2      -0.1381477686E+00       3    3    2        -0.2645509618E+01      0.7601560072E+01
          0                 2           2             8    4     2       0.1129378290E-01       3    3    2         0.2588911854E+00      0.6785759317E+00
          0                 3           1             8    4     2      -0.6528651393E-03       3    3    2        -0.1500047073E-01      0.3752400665E-01

    ------------------------------------------------
       NWT REQUIRED            3 OUTER ITERATIONS 
       AND A TOTAL OF          5 INNER ITERATIONS.
    ------------------------------------------------

 NO OUTPUT CONTROL FOR STRESS PERIOD   12   TIME STEP    6
 ..........LAKE  1 IS DRY..........
 
 SOLVING FOR HEAD 
                                                   Max.-Head-Change                         Max.-Flux-Residual
  Residual-Control   Outer-Iter.   Inner-Iter.     Column Row Layer    Maximum-Head-Change  Column Row Layer    Maximum-Flux-Residual          L2-NORM 
          0                 1           2             7    3     2      -0.1346259756E+00       3    3    2        -0.2571777890E+01      0.7329360657E+01
          0                 2           2             8    4     2       0.1081301986E-01       3    3    2         0.2517278055E+00      0.6542890024E+00
          0                 3           1             8    4     2      -0.6251727857E-03       3    3    2        -0.1459052303E-01      0.3617892341E-01

    ------------------------------------------------
       NWT REQUIRED            3 OUTER ITERATIONS 
       AND A TOTAL OF          5 INNER ITERATIONS.
    ------------------------------------------------

 NO OUTPUT CONTROL FOR STRESS PERIOD   12   TIME STEP    7
 ..........LAKE  1 IS DRY..........
 
 SOLVING FOR HEAD 
                                                   Max.-Head-Change                         Max.-Flux-Residual
  Residual-Control   Outer-Iter.   Inner-Iter.     Column Row Layer    Maximum-Head-Change  Column Row Layer    Maximum-Flux-Residual          L2-NORM 
          0                 1           2             7    3     2      -0.1317706687E+00       3    3    2        -0.2520212472E+01      0.7109081485E+01
          0                 2           2             7    3     2       0.1266170359E-01       3    3    2         0.2467210152E+00      0.6297486182E+00
          0                 3           1             7    3     2      -0.7295223099E-03       3    3    2        -0.1430425084E-01      0.3457041481E-01

    ------------------------------------------------
       NWT REQUIRED            3 OUTER ITERATIONS 
       AND A TOTAL OF          5 INNER ITERATIONS.
    ------------------------------------------------

 NO OUTPUT CONTROL FOR STRESS PERIOD   12   TIME STEP    8
 ..........LAKE  1 IS DRY..........
 
 SOLVING FOR HEAD 
                                                   Max.-Head-Change                         Max.-Flux-Residual
  Residual-Control   Outer-Iter.   Inner-Iter.     Column Row Layer    Maximum-Head-Change  Column Row Layer    Maximum-Flux-Residual          L2-NORM 
          0                 1           2             6    3     2      -0.1692951484E+00       3    3    2        -0.2749089241E+01      0.7526751336E+01
          0                 2           2             6    3     2       0.1410158136E-01       3    3    2         0.2694564198E+00      0.6674746716E+00
          0                 3           1             7    3     2      -0.7095961224E-03       3    3    2        -0.1565208371E-01      0.3605524927E-01

    ------------------------------------------------
       NWT REQUIRED            3 OUTER ITERATIONS 
       AND A TOTAL OF          5 INNER ITERATIONS.
    ------------------------------------------------

 NO OUTPUT CONTROL FOR STRESS PERIOD   12   TIME STEP    9
 ..........LAKE  1 IS DRY..........
 
 SOLVING FOR HEAD 
                                                   Max.-Head-Change                         Max.-Flux-Residual
  Residual-Control   Outer-Iter.   Inner-Iter.     Column Row Layer    Maximum-Head-Change  Column Row Layer    Maximum-Flux-Residual          L2-NORM 
          0                 1           2             6    3     2      -0.1649096899E+00       3    3    2        -0.2673717973E+01      0.7310506087E+01
          0                 2           2             6    3     2       0.1376144911E-01       3    3    2         0.2621046732E+00      0.6447947035E+00
          0                 3           1             7    3     2      -0.6907622822E-03       3    3    2        -0.1522939421E-01      0.3507846404E-01

    ------------------------------------------------
       NWT REQUIRED            3 OUTER ITERATIONS 
       AND A TOTAL OF          5 INNER ITERATIONS.
    ------------------------------------------------

 OUTPUT CONTROL FOR STRESS PERIOD   12   TIME STEP   10
    PRINT BUDGET
    SAVE BUDGET

  HEAD DEP BOUNDS   PERIOD   12   STEP    10
 BOUNDARY      1   LAYER   2   ROW    13   COL     1   RATE   -0.290184    
 BOUNDARY      2   LAYER   2   ROW    14   COL     9   RATE    0.215111    



 STREAM LISTING     PERIOD     12   STEP       10

 LAYER ROW COL. STREAM  RCH.  FLOW INTO     FLOW TO   FLOW OUT OF   OVRLND.     DIRECT     STREAM       STREAM     STREAM     STREAM   STREAMBED  STREAMBED
                SEG.NO.  NO.  STRM. RCH.    AQUIFER    STRM. RCH.    RUNOFF     PRECIP       ET          HEAD       DEPTH      WIDTH   CONDCTNC.   GRADIENT

   2    1    1     1     1    8.0000E+00  4.8505E-01   7.5149E+00  0.000E+00  0.000E+00  0.000E+00  1.09388E+03  8.276E-01  7.403E+00  3.331E-01  4.854E-01
   2    2    2     1     2    7.5149E+00  1.7655E+00   5.7494E+00  0.000E+00  0.000E+00  0.000E+00  1.08885E+03  7.898E-01  6.815E+00  4.770E-01  1.234E+00
   2    3    3     1     3    5.7494E+00  1.3397E+00   4.4097E+00  0.000E+00  0.000E+00  0.000E+00  1.08316E+03  7.411E-01  5.969E+00  3.581E-01  1.247E+00
   2    3    4     1     4    4.4097E+00  1.0743E+00   3.3354E+00  0.000E+00  0.000E+00  0.000E+00  1.07810E+03  6.922E-01  5.243E+00  2.910E-01  1.231E+00
   2    4    5     2     1    0.0000E+00  0.0000E+00   0.0000E+00  0.000E+00  0.000E+00  0.000E+00  1.07193E+03  0.000E+00  1.200E+01  7.800E-01  1.000E+00
   2    5    6     2     2    0.0000E+00  0.0000E+00   0.0000E+00  0.000E+00  0.000E+00  0.000E+00  1.06651E+03  0.000E+00  1.200E+01  6.000E-01  1.000E+00
   2    6    6     2     3    0.0000E+00  0.0000E+00   0.0000E+00  0.000E+00  0.000E+00  0.000E+00  1.06179E+03  0.000E+00  1.200E+01  6.000E-01  1.000E+00
   2    7    6     2     4    0.0000E+00  0.0000E+00   0.0000E+00  0.000E+00  0.000E+00  0.000E+00  1.05708E+03  0.000E+00  1.200E+01  6.000E-01  1.000E+00
   2    8    6     2     5    0.0000E+00  0.0000E+00   0.0000E+00  0.000E+00  0.000E+00  0.000E+00  1.05236E+03  0.000E+00  1.200E+01  6.000E-01  1.000E+00
   2    3    5     3     1    3.3354E+00  2.8252E+00   5.1017E-01  0.000E+00  0.000E+00  0.000E+00  1.07555E+03  1.909E+00  9.636E+00  7.227E-01  1.955E+00
   2    3    6     3     2    5.1017E-01  5.1017E-01   0.0000E+00  0.000E+00  0.000E+00  0.000E+00  1.07264E+03  0.000E+00  8.909E+00  6.682E-01  1.864E+00
   2    3    7     3     3    0.0000E+00  0.0000E+00   0.0000E+00  0.000E+00  0.000E+00  0.000E+00  1.06832E+03  0.000E+00  8.218E+00  5.547E-01  1.000E+00
   2    4    8     3     4    0.0000E+00  0.0000E+00   0.0000E+00  0.000E+00  0.000E+00  0.000E+00  1.06545E+03  0.000E+00  7.455E+00  6.709E-01  1.000E+00
   2    5    8     3     5    0.0000E+00  0.0000E+00   0.0000E+00  0.000E+00  0.000E+00  0.000E+00  1.06245E+03  0.000E+00  6.655E+00  4.991E-01  1.000E+00
   2    6    8     3     6    0.0000E+00  0.0000E+00   0.0000E+00  0.000E+00  0.000E+00  0.000E+00  1.06055E+03  0.000E+00  6.145E+00  1.844E-01  1.000E+00
   2    5   10     4     1    1.0000E+01  9.0525E-01   9.0947E+00  0.000E+00  0.000E+00  0.000E+00  1.07835E+03  6.210E-01  1.000E+01  2.500E-01  1.207E+00
   2    5    9     4     2    9.0947E+00  1.7835E+00   7.3113E+00  0.000E+00  0.000E+00  0.000E+00  1.07148E+03  5.670E-01  1.000E+01  5.000E-01  1.189E+00
   2    6    8     4     3    7.3113E+00  1.2257E+00   6.0855E+00  0.000E+00  0.000E+00  0.000E+00  1.06368E+03  5.021E-01  1.000E+01  3.500E-01  1.167E+00
   2    6    8     5     1    6.0855E+00  1.4716E+00   4.6139E+00  0.000E+00  0.000E+00  0.000E+00  1.05854E+03  5.396E-01  1.039E+01  4.158E-01  1.180E+00
   2    7    7     5     2    4.6139E+00  1.4897E+00   3.1242E+00  0.000E+00  0.000E+00  0.000E+00  1.05398E+03  4.817E-01  8.557E+00  4.279E-01  1.161E+00
   2    8    7     5     3    3.1242E+00  8.2855E-01   2.2957E+00  0.000E+00  0.000E+00  0.000E+00  1.04968E+03  4.253E-01  6.911E+00  2.419E-01  1.142E+00
   2    8    6     5     4    2.2957E+00  4.9455E-01   1.8011E+00  0.000E+00  0.000E+00  0.000E+00  1.04664E+03  3.856E-01  5.843E+00  1.461E-01  1.129E+00
   2    9    6     6     1    1.8011E+00  1.8011E+00   0.0000E+00  0.000E+00  0.000E+00  0.000E+00  1.04278E+03  5.669E-02  1.200E+01  6.000E-01  1.019E+00
   2   10    7     6     2    0.0000E+00  0.0000E+00   0.0000E+00  0.000E+00  0.000E+00  0.000E+00  1.03818E+03  0.000E+00  1.200E+01  6.000E-01  1.000E+00
   2   11    7     6     3    0.0000E+00  0.0000E+00   0.0000E+00  0.000E+00  0.000E+00  0.000E+00  1.03364E+03  0.000E+00  1.200E+01  6.000E-01  8.204E-01
   2   12    7     6     4    0.0000E+00  0.0000E+00   0.0000E+00  0.000E+00  0.000E+00  0.000E+00  1.02909E+03  0.000E+00  1.200E+01  6.000E-01  6.195E-02
   2   13    7     6     5    0.0000E+00 -7.7770E-01   7.7770E-01  0.000E+00  0.000E+00  0.000E+00  1.02601E+03  1.004E-01  1.200E+01  2.400E-01 -1.080E+00
   2   14    9     7     1    1.5000E+02  2.9350E+00   1.4707E+02  0.000E+00  0.000E+00  0.000E+00  1.03986E+03  2.283E+00  5.528E+01  5.591E+00  1.750E-01
   2   13    8     7     2    1.4707E+02  3.7561E+00   1.4331E+02  0.000E+00  0.000E+00  0.000E+00  1.03477E+03  2.266E+00  5.520E+01  6.140E+00  2.039E-01
   2   13    7     7     3    1.4331E+02  2.3333E+00   1.4098E+02  0.000E+00  0.000E+00  0.000E+00  1.02967E+03  2.249E+00  5.512E+01  5.574E+00  1.395E-01
   2   13    6     8     1    1.4175E+02  2.3275E-01   1.4153E+02  8.733E-03  0.000E+00  0.000E+00  1.02463E+03  2.757E+00  3.998E+01  4.074E+00  1.905E-02
   2   13    5     8     2    1.4153E+02 -2.9509E+00   1.4449E+02  8.733E-03  0.000E+00  0.000E+00  1.01839E+03  2.767E+00  4.012E+01  4.088E+00 -2.406E-01
   2   13    4     8     3    1.4449E+02 -5.7341E+00   1.5023E+02  8.733E-03  0.000E+00  0.000E+00  1.01217E+03  2.798E+00  4.057E+01  4.135E+00 -4.623E-01
   2   13    3     8     4    1.5023E+02 -6.1195E+00   1.5636E+02  8.733E-03  0.000E+00  0.000E+00  1.00596E+03  2.840E+00  4.118E+01  4.196E+00 -4.861E-01
   2   13    2     8     5    1.5636E+02 -3.5445E+00   1.5991E+02  8.733E-03  0.000E+00  0.000E+00  9.99748E+02  2.873E+00  4.166E+01  4.245E+00 -2.783E-01
   2   13    1     8     6    1.5991E+02 -2.2277E+00   1.6215E+02  5.240E-03  0.000E+00  0.000E+00  9.94768E+02  2.893E+00  4.195E+01  2.565E+00 -2.895E-01
   2    4    5     9     1    0.0000E+00  0.0000E+00   0.0000E+00  0.000E+00  0.000E+00  0.000E+00  1.06000E+03  0.000E+00  2.000E+01  2.000E-03  1.775E-01
   2    4    5    10     1    0.0000E+00  0.0000E+00   0.0000E+00  0.000E+00  0.000E+00  0.000E+00  1.08000E+03  0.000E+00  2.000E+01  2.000E-03  1.000E+00



 ..........LAKE  1 IS DRY..........

     SECTIONS OF THE LAKE BOTTOM HAVE BECOME DRY.  THE DRYSECTIONS
     LIE ABOVE THE FOLLOWING  1 AQUIFER CELLS (LAYER,ROW,COLUMN):
     (  2,  4,  5)  (

 PERIOD    12     TIME STEP    10     TIME STEP LENGTH  1.7520E+05
 PERIOD TIME  1.7520E+06     TOTAL SIMULATION TIME  3.0660E+07


                 HYDROLOGIC BUDGET SUMMARIES FOR SIMULATED LAKES
     (ALL FLUID FLUXES ARE VOLUMES ADDED TO THE LAKE DURING PRESENT TIME STEP)
     ----------------------------------------------------------------------------------------
 LAKE    STAGE         VOLUME     VOL. CHANGE      PRECIP     EVAPORATION    SPECIFIED RUNOFF     COMPUTED RUNOFF    TOTAL RUNOFF
   1  1.074500E+03  0.000000E+00  0.000000E+00  0.000000E+00  0.000000E+00   0.000000E+00          0.000000E+00      0.000000E+00

            GROUND WATER            SURFACE WATER        WATER          UZF INFIL.
 LAKE    INFLOW     OUTFLOW      INFLOW     OUTFLOW       USE        FROM LAKE
   1  0.0000E+00  0.0000E+00  0.0000E+00  0.0000E+00  0.0000E+00       0.0000E+00

      CONNECTED LAKE   TIME-STEP         STAGE-CHANGE          PERCENT
 LAKE    INFLUX      SURFACE AREA   TIME STEP  CUMULATIVE    DISCREPANCY
   1   0.0000E+00     0.0000E+00  -1.3306E-03  7.4458E-04       0.000
 --------------------------------------------------------------------------------



            CUMULATIVE HYDROLOGIC BUDGET SUMMARIES FOR SIMULATED LAKES
     (ALL FLUID FLUXES ARE SUMS OF VOLUMES ADDED TO THE LAKE SINCE INITIAL TIME)
     ---------------------------------------------------------------------------
 LAKE       PRECIP       EVAP     SPECIFIED RUNOFF   COMPUTED RUNOFF   TOTAL RUNOFF
   1     0.0000E+00  1.6029E+06       0.0000E+00       0.0000E+00       0.0000E+00

            GROUND WATER            SURFACE WATER       UZF INFIL.
 LAKE    INFLOW     OUTFLOW      INFLOW     OUTFLOW     FROM LAKE
   1  0.0000E+00  0.0000E+00  1.9325E+08  4.8784E+07    1.4286E+08

         WATER    CONNECTED LAKE   CHANGE       PERCENT
 LAKE     USE         INFLUX       IN VOL.    DISCREPANCY
   1   0.0000E+00   0.0000E+00   0.0000E+00     -0.000
 --------------------------------------------------------------------------------

 UBDSV3 SAVING "           GW ET" ON UNIT  61 AT TIME STEP    10, STRESS PERIOD  12
 UBDSV3 SAVING "    UZF RECHARGE" ON UNIT  61 AT TIME STEP    10, STRESS PERIOD  12
 UBDSV3 SAVING " SURFACE LEAKAGE" ON UNIT  61 AT TIME STEP    10, STRESS PERIOD  12
 UBDSV3 SAVING "       HORT+DUNN" ON UNIT  61 AT TIME STEP    10, STRESS PERIOD  12
 UBDSV3 SAVING "  STORAGE CHANGE" ON UNIT  61 AT TIME STEP    10, STRESS PERIOD  12


UNSATURATED ZONE PACKAGE VOLUMETRIC BUDGET FOR  TIME STEP    10 STRESS PERIOD   12
  ------------------------------------------------------------------------------



     CUMULATIVE VOLUMES      L**3       RATES FOR THIS TIME STEP      L**3/T
     ------------------                 ------------------------

           IN:                                      IN:
           ---                                      ---
        INFILTRATION =  1644657208.1055          INFILTRATION =           8.4470

          OUT:                                     OUT:
          ----                                     ----
              UZF ET =  1568864108.3687                UZF ET =           8.3386
        UZF RECHARGE =   731791087.8977          UZF RECHARGE =           3.3019

            IN - OUT =  -655997988.1609              IN - OUT =          -3.1935

          STORAGE:                                 STORAGE:
          --------                                 --------
      STORAGE CHANGE =  -656014498.8823        STORAGE CHANGE =          -3.1928

 PERCENT DISCREPANCY IS DIFFERENCE BETWEEN IN-OUT MINUS CHANGE IN STORAGE
 DIVIDED BY THE AVERAGE OF IN AND OUT TIMES 100

 PERCENT DISCREPANCY =           0.00     PERCENT DISCREPANCY =          -0.01






1
  VOLUMETRIC BUDGET FOR ENTIRE MODEL AT END OF TIME STEP   10, STRESS PERIOD  12
  ------------------------------------------------------------------------------

     CUMULATIVE VOLUMES      L**3       RATES FOR THIS TIME STEP      L**3/T
     ------------------                 ------------------------

           IN:                                      IN:
           ---                                      ---
             STORAGE =   348381280.0000               STORAGE =          27.0824
       CONSTANT HEAD =           0.0000         CONSTANT HEAD =           0.0000
               WELLS =           0.0000                 WELLS =           0.0000
     HEAD DEP BOUNDS =     6579214.5000       HEAD DEP BOUNDS =           0.2151
      STREAM LEAKAGE =  2143057664.0000        STREAM LEAKAGE =          27.2571
       LAKE  SEEPAGE =           0.0000         LAKE  SEEPAGE =           0.0000
        UZF RECHARGE =   731791232.0000          UZF RECHARGE =           3.3019
               GW ET =           0.0000                 GW ET =           0.0000
     SURFACE LEAKAGE =           0.0000       SURFACE LEAKAGE =           0.0000

            TOTAL IN =  3229809152.0000              TOTAL IN =          57.8565

          OUT:                                     OUT:
          ----                                     ----
             STORAGE =  1775676800.0000               STORAGE =          17.5288
       CONSTANT HEAD =           0.0000         CONSTANT HEAD =           0.0000
               WELLS =   394200000.0000                 WELLS =           0.0000
     HEAD DEP BOUNDS =     9290871.0000       HEAD DEP BOUNDS =           0.2902
      STREAM LEAKAGE =   574125696.0000        STREAM LEAKAGE =          21.3543
       LAKE  SEEPAGE =           0.0000         LAKE  SEEPAGE =           0.0000
        UZF RECHARGE =           0.0000          UZF RECHARGE =           0.0000
               GW ET =   474911712.0000                 GW ET =          18.6343
     SURFACE LEAKAGE =    88886512.0000       SURFACE LEAKAGE =       4.5904E-02

           TOTAL OUT =  3317091584.0000             TOTAL OUT =          57.8536

            IN - OUT =   -87282432.0000              IN - OUT =       2.9678E-03

 PERCENT DISCREPANCY =          -2.67     PERCENT DISCREPANCY =           0.01






         TIME SUMMARY AT END OF TIME STEP   10 IN STRESS PERIOD   12
                    SECONDS     MINUTES      HOURS       DAYS        YEARS
                    -----------------------------------------------------------
   TIME STEP LENGTH 1.75200E+05  2920.0      48.667      2.0278     5.55175E-03
 STRESS PERIOD TIME 1.75200E+06  29200.      486.67      20.278     5.55175E-02
         TOTAL TIME 3.06600E+07 5.11000E+05  8516.7      354.86     0.97156    
1
 
 SOLVING FOR HEAD 
                                                   Max.-Head-Change                         Max.-Flux-Residual
  Residual-Control   Outer-Iter.   Inner-Iter.     Column Row Layer    Maximum-Head-Change  Column Row Layer    Maximum-Flux-Residual          L2-NORM 
          0                 1           2             6    3     2      -0.1607118997E+00       3    3    2        -0.2602896975E+01      0.7109444373E+01
          0                 2           2             6    3     2       0.1343399130E-01       3    3    2         0.2551963592E+00      0.6284480067E+00
          0                 3           1             7    3     2      -0.6727576585E-03       3    3    2        -0.1483101718E-01      0.3425378247E-01

    ------------------------------------------------
       NWT REQUIRED            3 OUTER ITERATIONS 
       AND A TOTAL OF          5 INNER ITERATIONS.
    ------------------------------------------------

 NO OUTPUT CONTROL FOR STRESS PERIOD   12   TIME STEP   11
 ..........LAKE  1 IS DRY..........
 
 SOLVING FOR HEAD 
                                                   Max.-Head-Change                         Max.-Flux-Residual
  Residual-Control   Outer-Iter.   Inner-Iter.     Column Row Layer    Maximum-Head-Change  Column Row Layer    Maximum-Flux-Residual          L2-NORM 
          0                 1           2             6    3     2      -0.1928017795E+00       3    3    2        -0.2779215182E+01      0.7498459262E+01
          0                 2           2             6    3     2       0.1855765175E-01       3    3    2         0.2753911866E+00      0.6790611610E+00
          0                 3           2             6    3     2      -0.1072389110E-02       3    3    2        -0.1641914833E-01      0.3854193381E-01
          0                 4           1             6    3     2       0.2229444860E-04       3    3    2         0.3493335817E-03      0.8131591679E-03

    ------------------------------------------------
       NWT REQUIRED            4 OUTER ITERATIONS 
       AND A TOTAL OF          7 INNER ITERATIONS.
    ------------------------------------------------

 NO OUTPUT CONTROL FOR STRESS PERIOD   12   TIME STEP   12
 ..........LAKE  1 IS DRY..........
 
 SOLVING FOR HEAD 
                                                   Max.-Head-Change                         Max.-Flux-Residual
  Residual-Control   Outer-Iter.   Inner-Iter.     Column Row Layer    Maximum-Head-Change  Column Row Layer    Maximum-Flux-Residual          L2-NORM 
          0                 1           2             5    3     2      -0.1874462314E+00       3    3    2        -0.2849242692E+01      0.7705990715E+01
          0                 2           2             6    3     2       0.1801413833E-01       3    3    2         0.2836750727E+00      0.7136098145E+00
          0                 3           2             6    3     2      -0.1041019532E-02       3    3    2        -0.1690258051E-01      0.4078571581E-01
          0                 4           1             6    3     2       0.2164110336E-04       3    3    2         0.3582940935E-03      0.8585550021E-03

    ------------------------------------------------
       NWT REQUIRED            4 OUTER ITERATIONS 
       AND A TOTAL OF          7 INNER ITERATIONS.
    ------------------------------------------------

 NO OUTPUT CONTROL FOR STRESS PERIOD   12   TIME STEP   13
 ..........LAKE  1 IS DRY..........
 
 SOLVING FOR HEAD 
                                                   Max.-Head-Change                         Max.-Flux-Residual
  Residual-Control   Outer-Iter.   Inner-Iter.     Column Row Layer    Maximum-Head-Change  Column Row Layer    Maximum-Flux-Residual          L2-NORM 
          0                 1           2             6    3     2      -0.1815180904E+00       3    3    2        -0.2772098145E+01      0.7530617356E+01
          0                 2           2             6    3     2       0.1748071727E-01       3    3    2         0.2759872136E+00      0.6989714503E+00
          0                 3           1             6    3     2      -0.1010176053E-02       3    3    2        -0.1644371517E-01      0.3998295196E-01
          0                 4           1             6    3     2       0.2099930682E-04       3    3    2         0.3485147035E-03      0.8418451127E-03

    ------------------------------------------------
       NWT REQUIRED            4 OUTER ITERATIONS 
       AND A TOTAL OF          6 INNER ITERATIONS.
    ------------------------------------------------

 NO OUTPUT CONTROL FOR STRESS PERIOD   12   TIME STEP   14
 ..........LAKE  1 IS DRY..........
 
 SOLVING FOR HEAD 
                                                   Max.-Head-Change                         Max.-Flux-Residual
  Residual-Control   Outer-Iter.   Inner-Iter.     Column Row Layer    Maximum-Head-Change  Column Row Layer    Maximum-Flux-Residual          L2-NORM 
          0                 1           2             6    3     2      -0.1761935007E+00       3    3    2        -0.2701019380E+01      0.7366694656E+01
          0                 2           2             6    3     2       0.1696770529E-01       3    3    2         0.2689049227E+00      0.6850969193E+00
          0                 3           1             6    3     2      -0.9805126040E-03       3    3    2        -0.1602108847E-01      0.3922390447E-01

    ------------------------------------------------
       NWT REQUIRED            3 OUTER ITERATIONS 
       AND A TOTAL OF          5 INNER ITERATIONS.
    ------------------------------------------------

 OUTPUT CONTROL FOR STRESS PERIOD   12   TIME STEP   15
    PRINT BUDGET
    PRINT HEAD FOR ALL LAYERS
    SAVE HEAD FOR ALL LAYERS
    SAVE BUDGET

  HEAD DEP BOUNDS   PERIOD   12   STEP    15
 BOUNDARY      1   LAYER   2   ROW    13   COL     1   RATE   -0.289834    
 BOUNDARY      2   LAYER   2   ROW    14   COL     9   RATE    0.215134    



 STREAM LISTING     PERIOD     12   STEP       15

 LAYER ROW COL. STREAM  RCH.  FLOW INTO     FLOW TO   FLOW OUT OF   OVRLND.     DIRECT     STREAM       STREAM     STREAM     STREAM   STREAMBED  STREAMBED
                SEG.NO.  NO.  STRM. RCH.    AQUIFER    STRM. RCH.    RUNOFF     PRECIP       ET          HEAD       DEPTH      WIDTH   CONDCTNC.   GRADIENT

   2    1    1     1     1    4.4000E+00  3.7005E-01   4.0300E+00  0.000E+00  0.000E+00  0.000E+00  1.09376E+03  7.088E-01  5.440E+00  2.448E-01  5.039E-01
   2    2    2     1     2    4.0300E+00  1.2845E+00   2.7455E+00  0.000E+00  0.000E+00  0.000E+00  1.08872E+03  6.607E-01  5.013E+00  3.509E-01  1.220E+00
   2    3    3     1     3    2.7455E+00  9.4079E-01   1.8047E+00  0.000E+00  0.000E+00  0.000E+00  1.08299E+03  5.752E-01  4.386E+00  2.631E-01  1.192E+00
   2    3    4     1     4    1.8047E+00  7.4152E-01   1.0632E+00  0.000E+00  0.000E+00  0.000E+00  1.07788E+03  4.720E-01  3.848E+00  2.136E-01  1.157E+00
   2    4    5     2     1    0.0000E+00  0.0000E+00   0.0000E+00  0.000E+00  0.000E+00  0.000E+00  1.07193E+03  0.000E+00  1.200E+01  7.800E-01  1.000E+00
   2    5    6     2     2    0.0000E+00  0.0000E+00   0.0000E+00  0.000E+00  0.000E+00  0.000E+00  1.06651E+03  0.000E+00  1.200E+01  6.000E-01  1.000E+00
   2    6    6     2     3    0.0000E+00  0.0000E+00   0.0000E+00  0.000E+00  0.000E+00  0.000E+00  1.06179E+03  0.000E+00  1.200E+01  6.000E-01  1.000E+00
   2    7    6     2     4    0.0000E+00  0.0000E+00   0.0000E+00  0.000E+00  0.000E+00  0.000E+00  1.05708E+03  0.000E+00  1.200E+01  6.000E-01  1.000E+00
   2    8    6     2     5    0.0000E+00  0.0000E+00   0.0000E+00  0.000E+00  0.000E+00  0.000E+00  1.05236E+03  0.000E+00  1.200E+01  6.000E-01  1.000E+00
   2    3    5     3     1    1.0632E+00  1.0632E+00   0.0000E+00  0.000E+00  0.000E+00  0.000E+00  1.07555E+03  0.000E+00  9.636E+00  7.227E-01  1.955E+00
   2    3    6     3     2    0.0000E+00  0.0000E+00   0.0000E+00  0.000E+00  0.000E+00  0.000E+00  1.07091E+03  0.000E+00  8.909E+00  6.682E-01  1.000E+00
   2    3    7     3     3    0.0000E+00  0.0000E+00   0.0000E+00  0.000E+00  0.000E+00  0.000E+00  1.06832E+03  0.000E+00  8.218E+00  5.547E-01  1.000E+00
   2    4    8     3     4    0.0000E+00  0.0000E+00   0.0000E+00  0.000E+00  0.000E+00  0.000E+00  1.06545E+03  0.000E+00  7.455E+00  6.709E-01  1.000E+00
   2    5    8     3     5    0.0000E+00  0.0000E+00   0.0000E+00  0.000E+00  0.000E+00  0.000E+00  1.06245E+03  0.000E+00  6.655E+00  4.991E-01  1.000E+00
   2    6    8     3     6    0.0000E+00  0.0000E+00   0.0000E+00  0.000E+00  0.000E+00  0.000E+00  1.06055E+03  0.000E+00  6.145E+00  1.844E-01  1.000E+00
   2    5   10     4     1    1.0000E+01  9.0525E-01   9.0947E+00  0.000E+00  0.000E+00  0.000E+00  1.07835E+03  6.210E-01  1.000E+01  2.500E-01  1.207E+00
   2    5    9     4     2    9.0947E+00  1.7835E+00   7.3113E+00  0.000E+00  0.000E+00  0.000E+00  1.07148E+03  5.670E-01  1.000E+01  5.000E-01  1.189E+00
   2    6    8     4     3    7.3113E+00  1.2257E+00   6.0855E+00  0.000E+00  0.000E+00  0.000E+00  1.06368E+03  5.021E-01  1.000E+01  3.500E-01  1.167E+00
   2    6    8     5     1    6.0855E+00  1.4716E+00   4.6139E+00  0.000E+00  0.000E+00  0.000E+00  1.05854E+03  5.396E-01  1.039E+01  4.158E-01  1.180E+00
   2    7    7     5     2    4.6139E+00  1.4897E+00   3.1242E+00  0.000E+00  0.000E+00  0.000E+00  1.05398E+03  4.817E-01  8.557E+00  4.279E-01  1.161E+00
   2    8    7     5     3    3.1242E+00  8.2855E-01   2.2957E+00  0.000E+00  0.000E+00  0.000E+00  1.04968E+03  4.253E-01  6.911E+00  2.419E-01  1.142E+00
   2    8    6     5     4    2.2957E+00  4.9455E-01   1.8011E+00  0.000E+00  0.000E+00  0.000E+00  1.04664E+03  3.856E-01  5.843E+00  1.461E-01  1.129E+00
   2    9    6     6     1    1.8011E+00  1.8011E+00   0.0000E+00  0.000E+00  0.000E+00  0.000E+00  1.04278E+03  5.669E-02  1.200E+01  6.000E-01  1.019E+00
   2   10    7     6     2    0.0000E+00  0.0000E+00   0.0000E+00  0.000E+00  0.000E+00  0.000E+00  1.03818E+03  0.000E+00  1.200E+01  6.000E-01  1.000E+00
   2   11    7     6     3    0.0000E+00  0.0000E+00   0.0000E+00  0.000E+00  0.000E+00  0.000E+00  1.03364E+03  0.000E+00  1.200E+01  6.000E-01  8.545E-01
   2   12    7     6     4    0.0000E+00  0.0000E+00   0.0000E+00  0.000E+00  0.000E+00  0.000E+00  1.02909E+03  0.000E+00  1.200E+01  6.000E-01  8.540E-02
   2   13    7     6     5    0.0000E+00 -7.7514E-01   7.7514E-01  0.000E+00  0.000E+00  0.000E+00  1.02601E+03  1.002E-01  1.200E+01  2.400E-01 -1.077E+00
   2   14    9     7     1    1.5000E+02  2.9383E+00   1.4706E+02  0.000E+00  0.000E+00  0.000E+00  1.03986E+03  2.283E+00  5.528E+01  5.591E+00  1.752E-01
   2   13    8     7     2    1.4706E+02  3.7707E+00   1.4329E+02  0.000E+00  0.000E+00  0.000E+00  1.03477E+03  2.266E+00  5.519E+01  6.140E+00  2.047E-01
   2   13    7     7     3    1.4329E+02  2.3924E+00   1.4090E+02  0.000E+00  0.000E+00  0.000E+00  1.02967E+03  2.249E+00  5.512E+01  5.574E+00  1.431E-01
   2   13    6     8     1    1.4167E+02  2.7892E-01   1.4140E+02  8.268E-03  0.000E+00  0.000E+00  1.02463E+03  2.756E+00  3.996E+01  4.073E+00  2.283E-02
   2   13    5     8     2    1.4140E+02 -2.9311E+00   1.4434E+02  8.268E-03  0.000E+00  0.000E+00  1.01839E+03  2.766E+00  4.011E+01  4.087E+00 -2.391E-01
   2   13    4     8     3    1.4434E+02 -5.7294E+00   1.5008E+02  8.268E-03  0.000E+00  0.000E+00  1.01217E+03  2.797E+00  4.056E+01  4.133E+00 -4.621E-01
   2   13    3     8     4    1.5008E+02 -6.1131E+00   1.5620E+02  8.268E-03  0.000E+00  0.000E+00  1.00596E+03  2.839E+00  4.116E+01  4.195E+00 -4.858E-01
   2   13    2     8     5    1.5620E+02 -3.5310E+00   1.5974E+02  8.268E-03  0.000E+00  0.000E+00  9.99747E+02  2.872E+00  4.164E+01  4.244E+00 -2.773E-01
   2   13    1     8     6    1.5974E+02 -2.2063E+00   1.6195E+02  4.961E-03  0.000E+00  0.000E+00  9.94767E+02  2.892E+00  4.193E+01  2.564E+00 -2.869E-01
   2    4    5     9     1    0.0000E+00  0.0000E+00   0.0000E+00  0.000E+00  0.000E+00  0.000E+00  1.06000E+03  0.000E+00  2.000E+01  2.000E-03  2.499E-01
   2    4    5    10     1    0.0000E+00  0.0000E+00   0.0000E+00  0.000E+00  0.000E+00  0.000E+00  1.08000E+03  0.000E+00  2.000E+01  2.000E-03  1.000E+00



 ..........LAKE  1 IS DRY..........

     SECTIONS OF THE LAKE BOTTOM HAVE BECOME DRY.  THE DRYSECTIONS
     LIE ABOVE THE FOLLOWING  1 AQUIFER CELLS (LAYER,ROW,COLUMN):
     (  2,  4,  5)  (

 PERIOD    12     TIME STEP    15     TIME STEP LENGTH  1.7520E+05
 PERIOD TIME  2.6280E+06     TOTAL SIMULATION TIME  3.1536E+07


                 HYDROLOGIC BUDGET SUMMARIES FOR SIMULATED LAKES
     (ALL FLUID FLUXES ARE VOLUMES ADDED TO THE LAKE DURING PRESENT TIME STEP)
     ----------------------------------------------------------------------------------------
 LAKE    STAGE         VOLUME     VOL. CHANGE      PRECIP     EVAPORATION    SPECIFIED RUNOFF     COMPUTED RUNOFF    TOTAL RUNOFF
   1  1.074500E+03  0.000000E+00  0.000000E+00  0.000000E+00  0.000000E+00   0.000000E+00          0.000000E+00      0.000000E+00

            GROUND WATER            SURFACE WATER        WATER          UZF INFIL.
 LAKE    INFLOW     OUTFLOW      INFLOW     OUTFLOW       USE        FROM LAKE
   1  0.0000E+00  0.0000E+00  0.0000E+00  0.0000E+00  0.0000E+00       0.0000E+00

      CONNECTED LAKE   TIME-STEP         STAGE-CHANGE          PERCENT
 LAKE    INFLUX      SURFACE AREA   TIME STEP  CUMULATIVE    DISCREPANCY
   1   0.0000E+00     0.0000E+00  -1.3306E-03  7.4458E-04       0.000
 --------------------------------------------------------------------------------



            CUMULATIVE HYDROLOGIC BUDGET SUMMARIES FOR SIMULATED LAKES
     (ALL FLUID FLUXES ARE SUMS OF VOLUMES ADDED TO THE LAKE SINCE INITIAL TIME)
     ---------------------------------------------------------------------------
 LAKE       PRECIP       EVAP     SPECIFIED RUNOFF   COMPUTED RUNOFF   TOTAL RUNOFF
   1     0.0000E+00  1.6029E+06       0.0000E+00       0.0000E+00       0.0000E+00

            GROUND WATER            SURFACE WATER       UZF INFIL.
 LAKE    INFLOW     OUTFLOW      INFLOW     OUTFLOW     FROM LAKE
   1  0.0000E+00  0.0000E+00  1.9325E+08  4.8784E+07    1.4286E+08

         WATER    CONNECTED LAKE   CHANGE       PERCENT
 LAKE     USE         INFLUX       IN VOL.    DISCREPANCY
   1   0.0000E+00   0.0000E+00   0.0000E+00     -0.000
 --------------------------------------------------------------------------------

 UBDSV3 SAVING "           GW ET" ON UNIT  61 AT TIME STEP    15, STRESS PERIOD  12
 UBDSV3 SAVING "    UZF RECHARGE" ON UNIT  61 AT TIME STEP    15, STRESS PERIOD  12
 UBDSV3 SAVING " SURFACE LEAKAGE" ON UNIT  61 AT TIME STEP    15, STRESS PERIOD  12
 UBDSV3 SAVING "       HORT+DUNN" ON UNIT  61 AT TIME STEP    15, STRESS PERIOD  12
 UBDSV3 SAVING "  STORAGE CHANGE" ON UNIT  61 AT TIME STEP    15, STRESS PERIOD  12


UNSATURATED ZONE PACKAGE VOLUMETRIC BUDGET FOR  TIME STEP    15 STRESS PERIOD   12
  ------------------------------------------------------------------------------



     CUMULATIVE VOLUMES      L**3       RATES FOR THIS TIME STEP      L**3/T
     ------------------                 ------------------------

           IN:                                      IN:
           ---                                      ---
        INFILTRATION =  1652056827.3213          INFILTRATION =           8.4471

          OUT:                                     OUT:
          ----                                     ----
              UZF ET =  1576169068.0669                UZF ET =           8.3392
        UZF RECHARGE =   734527876.1286          UZF RECHARGE =           2.9924

            IN - OUT =  -658640116.8742              IN - OUT =          -2.8845

          STORAGE:                                 STORAGE:
          --------                                 --------
      STORAGE CHANGE =  -658655754.4745        STORAGE CHANGE =          -2.8842

 PERCENT DISCREPANCY IS DIFFERENCE BETWEEN IN-OUT MINUS CHANGE IN STORAGE
 DIVIDED BY THE AVERAGE OF IN AND OUT TIMES 100

 PERCENT DISCREPANCY =           0.00     PERCENT DISCREPANCY =          -0.00






1
              HEAD IN LAYER   1 AT END OF TIME STEP    15 IN STRESS PERIOD   12
  -----------------------------------------------------------------------------

           1       2       3       4       5       6       7       8       9      10
 ...................................................................................
   1  6999.00 6999.00 6999.00 6999.00 6999.00 6999.00 6999.00 6999.00 6999.00 6999.00
   2  6999.00 6999.00 6999.00 6999.00 6999.00 6999.00 6999.00 6999.00 6999.00 6999.00
   3  6999.00 6999.00 6999.00 6999.00 6999.00 6999.00 6999.00 6999.00 6999.00 6999.00
   4  6999.00 6999.00 6999.00 6999.00 1074.50 6999.00 6999.00 6999.00 6999.00 6999.00
   5  6999.00 6999.00 6999.00 6999.00 6999.00 6999.00 6999.00 6999.00 6999.00 6999.00
   6  6999.00 6999.00 6999.00 6999.00 6999.00 6999.00 6999.00 6999.00 6999.00 6999.00
   7  6999.00 6999.00 6999.00 6999.00 6999.00 6999.00 6999.00 6999.00 6999.00 6999.00
   8  6999.00 6999.00 6999.00 6999.00 6999.00 6999.00 6999.00 6999.00 6999.00 6999.00
   9  6999.00 6999.00 6999.00 6999.00 6999.00 6999.00 6999.00 6999.00 6999.00 6999.00
  10  6999.00 6999.00 6999.00 6999.00 6999.00 6999.00 6999.00 6999.00 6999.00 6999.00
  11  6999.00 6999.00 6999.00 6999.00 6999.00 6999.00 6999.00 6999.00 6999.00 6999.00
  12  6999.00 6999.00 6999.00 6999.00 6999.00 6999.00 6999.00 6999.00 6999.00 6999.00
  13  6999.00 6999.00 6999.00 6999.00 6999.00 6999.00 6999.00 6999.00 6999.00 6999.00
  14  6999.00 6999.00 6999.00 6999.00 6999.00 6999.00 6999.00 6999.00 6999.00 6999.00
  15  6999.00 6999.00 6999.00 6999.00 6999.00 6999.00 6999.00 6999.00 6999.00 6999.00
1
              HEAD IN LAYER   2 AT END OF TIME STEP    15 IN STRESS PERIOD   12
  -----------------------------------------------------------------------------

           1       2       3       4       5       6       7       8       9      10
 ...................................................................................
   1  1092.24 1089.25 6999.00 6999.00 6999.00 6999.00 6999.00 6999.00 6999.00 6999.00
   2  1088.84 1084.81 1080.01 6999.00 6999.00 1067.68 1066.88 1065.61 6999.00 6999.00
   3  6999.00 1075.74 1072.48 1068.23 1067.20 1065.71 1064.67 1063.95 6999.00 6999.00
   4  1062.42 1065.15 1065.01 1061.53 1059.25 1058.18 1058.32 1058.97 1058.28 6999.00
   5  1058.12 1056.98 1056.60 1055.26 1054.52 1054.03 1053.46 1053.99 1056.54 1058.19
   6  1053.88 1051.11 1050.12 1049.76 1049.72 1050.22 1050.84 1052.13 1053.34 1056.92
   7  1050.87 1045.84 1044.63 1044.68 1045.14 1046.19 1047.64 1049.15 1049.71 6999.00
   8  6999.00 1039.99 1039.53 1039.91 1040.57 1041.90 1043.33 1045.29 1045.47 6999.00
   9  6999.00 1033.88 1034.10 1034.90 1035.81 1037.49 1038.47 1039.40 1041.08 6999.00
  10  6999.00 1027.73 1028.52 1030.00 1031.30 1033.00 1034.10 1035.42 1037.68 1040.76
  11  6999.00 1020.15 1021.62 1024.98 1027.12 1029.37 1031.07 1032.91 1035.29 6999.00
  12  1003.14 1009.88 1014.29 1019.05 1022.75 1026.26 1028.83 1031.47 1034.90 6999.00
  13   995.63 1000.58 1007.42 1013.56 1019.11 1024.56 1029.24 1034.15 1036.73 6999.00
  14  6999.00 1007.10 1010.76 1015.70 1020.77 1025.61 1030.08 1035.17 1039.34 6999.00
  15  6999.00 6999.00 1018.81 1021.56 1025.08 1027.91 6999.00 6999.00 6999.00 6999.00

 HEAD WILL BE SAVED ON UNIT   58 AT END OF TIME STEP   15, STRESS PERIOD   12
1
  VOLUMETRIC BUDGET FOR ENTIRE MODEL AT END OF TIME STEP   15, STRESS PERIOD  12
  ------------------------------------------------------------------------------

     CUMULATIVE VOLUMES      L**3       RATES FOR THIS TIME STEP      L**3/T
     ------------------                 ------------------------

           IN:                                      IN:
           ---                                      ---
             STORAGE =   373039232.0000               STORAGE =          28.2549
       CONSTANT HEAD =           0.0000         CONSTANT HEAD =           0.0000
               WELLS =           0.0000                 WELLS =           0.0000
     HEAD DEP BOUNDS =     6767664.0000       HEAD DEP BOUNDS =           0.2151
      STREAM LEAKAGE =  2164712192.0000        STREAM LEAKAGE =          23.7803
       LAKE  SEEPAGE =           0.0000         LAKE  SEEPAGE =           0.0000
        UZF RECHARGE =   734528000.0000          UZF RECHARGE =           2.9924
               GW ET =           0.0000                 GW ET =           0.0000
     SURFACE LEAKAGE =           0.0000       SURFACE LEAKAGE =           0.0000

            TOTAL IN =  3279047168.0000              TOTAL IN =          55.2427

          OUT:                                     OUT:
          ----                                     ----
             STORAGE =  1789800576.0000               STORAGE =          15.3174
       CONSTANT HEAD =           0.0000         CONSTANT HEAD =           0.0000
               WELLS =   394200000.0000                 WELLS =           0.0000
     HEAD DEP BOUNDS =     9544877.0000       HEAD DEP BOUNDS =           0.2898
      STREAM LEAKAGE =   592793984.0000        STREAM LEAKAGE =          21.2861
       LAKE  SEEPAGE =           0.0000         LAKE  SEEPAGE =           0.0000
        UZF RECHARGE =           0.0000          UZF RECHARGE =           0.0000
               GW ET =   491063712.0000                 GW ET =          18.3027
     SURFACE LEAKAGE =    88925264.0000       SURFACE LEAKAGE =       4.3386E-02

           TOTAL OUT =  3366328320.0000             TOTAL OUT =          55.2394

            IN - OUT =   -87281152.0000              IN - OUT =       3.3455E-03

 PERCENT DISCREPANCY =          -2.63     PERCENT DISCREPANCY =           0.01






         TIME SUMMARY AT END OF TIME STEP   15 IN STRESS PERIOD   12
                    SECONDS     MINUTES      HOURS       DAYS        YEARS
                    -----------------------------------------------------------
   TIME STEP LENGTH 1.75200E+05  2920.0      48.667      2.0278     5.55175E-03
 STRESS PERIOD TIME 2.62800E+06  43800.      730.00      30.417     8.32763E-02
         TOTAL TIME 3.15360E+07 5.25600E+05  8760.0      365.00     0.99932    
1
 
 SOLVING FOR HEAD 
                                                   Max.-Head-Change                         Max.-Flux-Residual
  Residual-Control   Outer-Iter.   Inner-Iter.     Column Row Layer    Maximum-Head-Change  Column Row Layer    Maximum-Flux-Residual          L2-NORM 
          0                 1           2             5    3     2      -0.2424576559E+00       5    3    2        -0.3299278928E+01      0.8178913600E+01
          0                 2           2             5    3     2       0.2332771915E-01       5    3    2         0.3293995252E+00      0.7743517161E+00
          0                 3           1             5    3     2      -0.1345942253E-02       5    3    2        -0.1971995126E-01      0.4488383312E-01
          0                 4           1             5    3     2       0.2784909006E-04       5    3    2         0.4233101872E-03      0.9505000021E-03

    ------------------------------------------------
       NWT REQUIRED            4 OUTER ITERATIONS 
       AND A TOTAL OF          6 INNER ITERATIONS.
    ------------------------------------------------

 NO OUTPUT CONTROL FOR STRESS PERIOD   12   TIME STEP   16
 ..........LAKE  1 IS DRY..........
 
 SOLVING FOR HEAD 
                                                   Max.-Head-Change                         Max.-Flux-Residual
  Residual-Control   Outer-Iter.   Inner-Iter.     Column Row Layer    Maximum-Head-Change  Column Row Layer    Maximum-Flux-Residual          L2-NORM 
          0                 1           2             5    3     2      -0.2237385875E+00       5    3    2        -0.3041760286E+01      0.7689330551E+01
          0                 2           2             5    3     2       0.2145301535E-01       5    3    2         0.3026534301E+00      0.7250519713E+00
          0                 3           1             5    3     2      -0.1231110701E-02       5    3    2        -0.1802150811E-01      0.4189690630E-01
          0                 4           1             5    3     2       0.2512282280E-04       5    3    2         0.3815579761E-03      0.8848900008E-03

    ------------------------------------------------
       NWT REQUIRED            4 OUTER ITERATIONS 
       AND A TOTAL OF          6 INNER ITERATIONS.
    ------------------------------------------------

 NO OUTPUT CONTROL FOR STRESS PERIOD   12   TIME STEP   17
 ..........LAKE  1 IS DRY..........
 
 SOLVING FOR HEAD 
                                                   Max.-Head-Change                         Max.-Flux-Residual
  Residual-Control   Outer-Iter.   Inner-Iter.     Column Row Layer    Maximum-Head-Change  Column Row Layer    Maximum-Flux-Residual          L2-NORM 
          0                 1           2             5    3     2      -0.2146076669E+00       4    3    2        -0.2926576782E+01      0.7534803930E+01
          0                 2           2             5    3     2       0.2057545316E-01       5    3    2         0.2900072745E+00      0.7111694763E+00
          0                 3           1             5    3     2      -0.1180497681E-02       5    3    2        -0.1726464893E-01      0.4112120156E-01
          0                 4           1             5    3     2       0.2408452511E-04       5    3    2         0.3654484526E-03      0.8685774171E-03

    ------------------------------------------------
       NWT REQUIRED            4 OUTER ITERATIONS 
       AND A TOTAL OF          6 INNER ITERATIONS.
    ------------------------------------------------

 NO OUTPUT CONTROL FOR STRESS PERIOD   12   TIME STEP   18
 ..........LAKE  1 IS DRY..........
 
 SOLVING FOR HEAD 
                                                   Max.-Head-Change                         Max.-Flux-Residual
  Residual-Control   Outer-Iter.   Inner-Iter.     Column Row Layer    Maximum-Head-Change  Column Row Layer    Maximum-Flux-Residual          L2-NORM 
          0                 1           2             5    3     2      -0.2060337217E+00       4    3    2        -0.2886504086E+01      0.7389237905E+01
          0                 2           2             5    3     2       0.1975140889E-01       4    3    2         0.2851158376E+00      0.6980605977E+00
          0                 3           1             5    3     2      -0.1132964731E-02       4    3    2        -0.1676855131E-01      0.4038838925E-01
          0                 4           1             5    3     2       0.2296815154E-04       5    3    2         0.3480998020E-03      0.8531958828E-03

    ------------------------------------------------
       NWT REQUIRED            4 OUTER ITERATIONS 
       AND A TOTAL OF          6 INNER ITERATIONS.
    ------------------------------------------------

 NO OUTPUT CONTROL FOR STRESS PERIOD   12   TIME STEP   19
 ..........LAKE  1 IS DRY..........
 
 SOLVING FOR HEAD 
                                                   Max.-Head-Change                         Max.-Flux-Residual
  Residual-Control   Outer-Iter.   Inner-Iter.     Column Row Layer    Maximum-Head-Change  Column Row Layer    Maximum-Flux-Residual          L2-NORM 
          0                 1           2             5    3     2      -0.1979751503E+00       4    3    2        -0.2845565060E+01      0.7251727811E+01
          0                 2           2             5    3     2       0.1897705693E-01       4    3    2         0.2810917393E+00      0.6856907914E+00
          0                 3           1             5    3     2      -0.1088306590E-02       4    3    2        -0.1653477148E-01      0.3970257175E-01
          0                 4           1             5    3     2       0.2205671955E-04       4    3    2         0.3396293994E-03      0.8388703963E-03

    ------------------------------------------------
       NWT REQUIRED            4 OUTER ITERATIONS 
       AND A TOTAL OF          6 INNER ITERATIONS.
    ------------------------------------------------

 NO OUTPUT CONTROL FOR STRESS PERIOD   12   TIME STEP   20
 ..........LAKE  1 IS DRY..........
 
 SOLVING FOR HEAD 
                                                   Max.-Head-Change                         Max.-Flux-Residual
  Residual-Control   Outer-Iter.   Inner-Iter.     Column Row Layer    Maximum-Head-Change  Column Row Layer    Maximum-Flux-Residual          L2-NORM 
          0                 1           2             5    3     2      -0.1903923919E+00       4    3    2        -0.2804089235E+01      0.7121400874E+01
          0                 2           2             5    3     2       0.1824668673E-01       4    3    2         0.2770138674E+00      0.6735097964E+00
          0                 3           1             5    3     2      -0.1046317588E-02       4    3    2        -0.1629529232E-01      0.3902974157E-01
          0                 4           1             5    3     2       0.2133060068E-04       4    3    2         0.3325420037E-03      0.8248609419E-03

    ------------------------------------------------
       NWT REQUIRED            4 OUTER ITERATIONS 
       AND A TOTAL OF          6 INNER ITERATIONS.
    ------------------------------------------------

 NO OUTPUT CONTROL FOR STRESS PERIOD   12   TIME STEP   21
 ..........LAKE  1 IS DRY..........
 
 SOLVING FOR HEAD 
                                                   Max.-Head-Change                         Max.-Flux-Residual
  Residual-Control   Outer-Iter.   Inner-Iter.     Column Row Layer    Maximum-Head-Change  Column Row Layer    Maximum-Flux-Residual          L2-NORM 
          0                 1           2             5    3     2      -0.1832571140E+00       4    3    2        -0.2762328092E+01      0.6997326446E+01
          0                 2           2             5    3     2       0.1756262396E-01       4    3    2         0.2729033519E+00      0.6629920048E+00
          0                 3           1             5    3     2      -0.1006859874E-02       4    3    2        -0.1605586035E-01      0.3844155599E-01
          0                 4           1             5    3     2       0.2039093564E-04       4    3    2         0.3298577151E-03      0.8126508349E-03

    ------------------------------------------------
       NWT REQUIRED            4 OUTER ITERATIONS 
       AND A TOTAL OF          6 INNER ITERATIONS.
    ------------------------------------------------

 NO OUTPUT CONTROL FOR STRESS PERIOD   12   TIME STEP   22
 ..........LAKE  1 IS DRY..........
 
 SOLVING FOR HEAD 
                                                   Max.-Head-Change                         Max.-Flux-Residual
  Residual-Control   Outer-Iter.   Inner-Iter.     Column Row Layer    Maximum-Head-Change  Column Row Layer    Maximum-Flux-Residual          L2-NORM 
          0                 1           2             5    3     2      -0.1765327547E+00       4    3    2        -0.2720520591E+01      0.6879759024E+01
          0                 2           2             5    3     2       0.1691647507E-01       4    3    2         0.2687863132E+00      0.6526406642E+00
          0                 3           1             5    3     2      -0.9697274684E-03       4    3    2        -0.1581371206E-01      0.3786333679E-01

    ------------------------------------------------
       NWT REQUIRED            3 OUTER ITERATIONS 
       AND A TOTAL OF          5 INNER ITERATIONS.
    ------------------------------------------------

 NO OUTPUT CONTROL FOR STRESS PERIOD   12   TIME STEP   23
 ..........LAKE  1 IS DRY..........
 
 SOLVING FOR HEAD 
                                                   Max.-Head-Change                         Max.-Flux-Residual
  Residual-Control   Outer-Iter.   Inner-Iter.     Column Row Layer    Maximum-Head-Change  Column Row Layer    Maximum-Flux-Residual          L2-NORM 
          0                 1           2             5    3     2      -0.1701892396E+00       4    3    2        -0.2678835201E+01      0.6767613631E+01
          0                 2           2             5    3     2       0.1630676382E-01       4    3    2         0.2646815827E+00      0.6427046822E+00
          0                 3           1             5    3     2      -0.9344139373E-03       4    3    2        -0.1557633987E-01      0.3730612787E-01

    ------------------------------------------------
       NWT REQUIRED            3 OUTER ITERATIONS 
       AND A TOTAL OF          5 INNER ITERATIONS.
    ------------------------------------------------

 NO OUTPUT CONTROL FOR STRESS PERIOD   12   TIME STEP   24
 ..........LAKE  1 IS DRY..........
 
 SOLVING FOR HEAD 
                                                   Max.-Head-Change                         Max.-Flux-Residual
  Residual-Control   Outer-Iter.   Inner-Iter.     Column Row Layer    Maximum-Head-Change  Column Row Layer    Maximum-Flux-Residual          L2-NORM 
          0                 1           2             5    3     2      -0.1642011569E+00       4    3    2        -0.2637438430E+01      0.6660795610E+01
          0                 2           2             5    3     2       0.1573152136E-01       4    3    2         0.2605992925E+00      0.6332229483E+00
          0                 3           1             5    3     2      -0.9013475100E-03       4    3    2        -0.1533616725E-01      0.3677398561E-01

    ------------------------------------------------
       NWT REQUIRED            3 OUTER ITERATIONS 
       AND A TOTAL OF          5 INNER ITERATIONS.
    ------------------------------------------------

 NO OUTPUT CONTROL FOR STRESS PERIOD   12   TIME STEP   25
 ..........LAKE  1 IS DRY..........
 
 SOLVING FOR HEAD 
                                                   Max.-Head-Change                         Max.-Flux-Residual
  Residual-Control   Outer-Iter.   Inner-Iter.     Column Row Layer    Maximum-Head-Change  Column Row Layer    Maximum-Flux-Residual          L2-NORM 
          0                 1           2             5    3     2      -0.1585435173E+00       4    3    2        -0.2596450185E+01      0.6558659988E+01
          0                 2           2             5    3     2       0.1518795751E-01       4    3    2         0.2565573222E+00      0.6242223154E+00
          0                 3           1             5    3     2      -0.8701823711E-03       4    3    2        -0.1509716824E-01      0.3626782948E-01

    ------------------------------------------------
       NWT REQUIRED            3 OUTER ITERATIONS 
       AND A TOTAL OF          5 INNER ITERATIONS.
    ------------------------------------------------

 NO OUTPUT CONTROL FOR STRESS PERIOD   12   TIME STEP   26
 ..........LAKE  1 IS DRY..........
 
 SOLVING FOR HEAD 
                                                   Max.-Head-Change                         Max.-Flux-Residual
  Residual-Control   Outer-Iter.   Inner-Iter.     Column Row Layer    Maximum-Head-Change  Column Row Layer    Maximum-Flux-Residual          L2-NORM 
          0                 1           2             5    3     2      -0.1531935467E+00       4    3    2        -0.2555965993E+01      0.6461408864E+01
          0                 2           2             5    3     2       0.1467400564E-01       4    3    2         0.2525624744E+00      0.6152143369E+00
          0                 3           1             5    3     2      -0.8405827017E-03       4    3    2        -0.1486265430E-01      0.3576078449E-01

    ------------------------------------------------
       NWT REQUIRED            3 OUTER ITERATIONS 
       AND A TOTAL OF          5 INNER ITERATIONS.
    ------------------------------------------------

 NO OUTPUT CONTROL FOR STRESS PERIOD   12   TIME STEP   27
 ..........LAKE  1 IS DRY..........
 
 SOLVING FOR HEAD 
                                                   Max.-Head-Change                         Max.-Flux-Residual
  Residual-Control   Outer-Iter.   Inner-Iter.     Column Row Layer    Maximum-Head-Change  Column Row Layer    Maximum-Flux-Residual          L2-NORM 
          0                 1           2             5    3     2      -0.1481296183E+00       4    3    2        -0.2516075839E+01      0.6368800262E+01
          0                 2           2             5    3     2       0.1418734672E-01       4    3    2         0.2486292718E+00      0.6073013380E+00
          0                 3           1             5    3     2      -0.8124296418E-03       4    3    2        -0.1463393892E-01      0.3532084798E-01

    ------------------------------------------------
       NWT REQUIRED            3 OUTER ITERATIONS 
       AND A TOTAL OF          5 INNER ITERATIONS.
    ------------------------------------------------

 NO OUTPUT CONTROL FOR STRESS PERIOD   12   TIME STEP   28
 ..........LAKE  1 IS DRY..........
 
 SOLVING FOR HEAD 
                                                   Max.-Head-Change                         Max.-Flux-Residual
  Residual-Control   Outer-Iter.   Inner-Iter.     Column Row Layer    Maximum-Head-Change  Column Row Layer    Maximum-Flux-Residual          L2-NORM 
          0                 1           2             5    3     2      -0.1433334715E+00       4    3    2        -0.2476837792E+01      0.6279853637E+01
          0                 2           2             5    3     2       0.1372667548E-01       4    3    2         0.2447549894E+00      0.5993907710E+00
          0                 3           1             5    3     2      -0.7860399547E-03       4    3    2        -0.1440438078E-01      0.3487751792E-01

    ------------------------------------------------
       NWT REQUIRED            3 OUTER ITERATIONS 
       AND A TOTAL OF          5 INNER ITERATIONS.
    ------------------------------------------------

 NO OUTPUT CONTROL FOR STRESS PERIOD   12   TIME STEP   29
 ..........LAKE  1 IS DRY..........
 
 SOLVING FOR HEAD 
                                                   Max.-Head-Change                         Max.-Flux-Residual
  Residual-Control   Outer-Iter.   Inner-Iter.     Column Row Layer    Maximum-Head-Change  Column Row Layer    Maximum-Flux-Residual          L2-NORM 
          0                 1           2             5    3     2      -0.1387869093E+00       4    3    2        -0.2438291975E+01      0.6193873673E+01
          0                 2           2             5    3     2       0.1329000811E-01       4    3    2         0.2409484125E+00      0.5915833218E+00
          0                 3           1             5    3     2      -0.7609015273E-03       4    3    2        -0.1418077189E-01      0.3443710304E-01

    ------------------------------------------------
       NWT REQUIRED            3 OUTER ITERATIONS 
       AND A TOTAL OF          5 INNER ITERATIONS.
    ------------------------------------------------

 NO OUTPUT CONTROL FOR STRESS PERIOD   12   TIME STEP   30
 ..........LAKE  1 IS DRY..........
 
 SOLVING FOR HEAD 
                                                   Max.-Head-Change                         Max.-Flux-Residual
  Residual-Control   Outer-Iter.   Inner-Iter.     Column Row Layer    Maximum-Head-Change  Column Row Layer    Maximum-Flux-Residual          L2-NORM 
          0                 1           2             5    3     2      -0.1344740263E+00       4    3    2        -0.2400488512E+01      0.6111865676E+01
          0                 2           2             5    3     2       0.1287566619E-01       4    3    2         0.2372162006E+00      0.5842731795E+00
          0                 3           1             5    3     2      -0.7370490785E-03       4    3    2        -0.1396142307E-01      0.3402905218E-01

    ------------------------------------------------
       NWT REQUIRED            3 OUTER ITERATIONS 
       AND A TOTAL OF          5 INNER ITERATIONS.
    ------------------------------------------------

 NO OUTPUT CONTROL FOR STRESS PERIOD   12   TIME STEP   31
 ..........LAKE  1 IS DRY..........
 
 SOLVING FOR HEAD 
                                                   Max.-Head-Change                         Max.-Flux-Residual
  Residual-Control   Outer-Iter.   Inner-Iter.     Column Row Layer    Maximum-Head-Change  Column Row Layer    Maximum-Flux-Residual          L2-NORM 
          0                 1           2             5    3     2      -0.1303790227E+00       4    3    2        -0.2363442934E+01      0.6032709112E+01
          0                 2           2             5    3     2       0.1248241016E-01       4    3    2         0.2335561455E+00      0.5770521969E+00
          0                 3           1             5    3     2      -0.7144121654E-03       4    3    2        -0.1374624721E-01      0.3362368789E-01

    ------------------------------------------------
       NWT REQUIRED            3 OUTER ITERATIONS 
       AND A TOTAL OF          5 INNER ITERATIONS.
    ------------------------------------------------

 NO OUTPUT CONTROL FOR STRESS PERIOD   12   TIME STEP   32
 ..........LAKE  1 IS DRY..........
 
 SOLVING FOR HEAD 
                                                   Max.-Head-Change                         Max.-Flux-Residual
  Residual-Control   Outer-Iter.   Inner-Iter.     Column Row Layer    Maximum-Head-Change  Column Row Layer    Maximum-Flux-Residual          L2-NORM 
          0                 1           2             5    3     2      -0.1264885132E+00       4    3    2        -0.2327179653E+01      0.5956195178E+01
          0                 2           2             5    3     2       0.1210867232E-01       4    3    2         0.2299744222E+00      0.5702145066E+00
          0                 3           1             5    3     2      -0.6929007519E-03       4    3    2        -0.1353554899E-01      0.3324161290E-01

    ------------------------------------------------
       NWT REQUIRED            3 OUTER ITERATIONS 
       AND A TOTAL OF          5 INNER ITERATIONS.
    ------------------------------------------------

 NO OUTPUT CONTROL FOR STRESS PERIOD   12   TIME STEP   33
 ..........LAKE  1 IS DRY..........
 
 SOLVING FOR HEAD 
                                                   Max.-Head-Change                         Max.-Flux-Residual
  Residual-Control   Outer-Iter.   Inner-Iter.     Column Row Layer    Maximum-Head-Change  Column Row Layer    Maximum-Flux-Residual          L2-NORM 
          0                 1           2             5    3     2      -0.1227890063E+00       4    3    2        -0.2291706178E+01      0.5882345269E+01
          0                 2           2             5    3     2       0.1175330510E-01       4    3    2         0.2264703972E+00      0.5634677313E+00
          0                 3           1             5    3     2      -0.6724526723E-03       4    3    2        -0.1332952751E-01      0.3287127938E-01

    ------------------------------------------------
       NWT REQUIRED            3 OUTER ITERATIONS 
       AND A TOTAL OF          5 INNER ITERATIONS.
    ------------------------------------------------

 NO OUTPUT CONTROL FOR STRESS PERIOD   12   TIME STEP   34
 ..........LAKE  1 IS DRY..........
 
 SOLVING FOR HEAD 
                                                   Max.-Head-Change                         Max.-Flux-Residual
  Residual-Control   Outer-Iter.   Inner-Iter.     Column Row Layer    Maximum-Head-Change  Column Row Layer    Maximum-Flux-Residual          L2-NORM 
          0                 1           2             5    3     2      -0.1192693336E+00       4    3    2        -0.2257018156E+01      0.5810934727E+01
          0                 2           2             5    3     2       0.1141522646E-01       4    3    2         0.2230433595E+00      0.5570108312E+00
          0                 3           1             5    3     2      -0.6529972214E-03       4    3    2        -0.1312788236E-01      0.3251833117E-01

    ------------------------------------------------
       NWT REQUIRED            3 OUTER ITERATIONS 
       AND A TOTAL OF          5 INNER ITERATIONS.
    ------------------------------------------------

 NO OUTPUT CONTROL FOR STRESS PERIOD   12   TIME STEP   35
 ..........LAKE  1 IS DRY..........
 
 SOLVING FOR HEAD 
                                                   Max.-Head-Change                         Max.-Flux-Residual
  Residual-Control   Outer-Iter.   Inner-Iter.     Column Row Layer    Maximum-Head-Change  Column Row Layer    Maximum-Flux-Residual          L2-NORM 
          0                 1           2             5    3     2      -0.1159182530E+00       4    3    2        -0.2223128415E+01      0.5741794091E+01
          0                 2           2             5    3     2       0.1109348031E-01       4    3    2         0.2196926155E+00      0.5507202695E+00
          0                 3           1             5    3     2      -0.6344814043E-03       4    3    2        -0.1293059561E-01      0.3216786055E-01

    ------------------------------------------------
       NWT REQUIRED            3 OUTER ITERATIONS 
       AND A TOTAL OF          5 INNER ITERATIONS.
    ------------------------------------------------

 NO OUTPUT CONTROL FOR STRESS PERIOD   12   TIME STEP   36
 ..........LAKE  1 IS DRY..........
 
 SOLVING FOR HEAD 
                                                   Max.-Head-Change                         Max.-Flux-Residual
  Residual-Control   Outer-Iter.   Inner-Iter.     Column Row Layer    Maximum-Head-Change  Column Row Layer    Maximum-Flux-Residual          L2-NORM 
          0                 1           2             5    3     2      -0.1127252477E+00       4    3    2        -0.2190032368E+01      0.5675305491E+01
          0                 2           2             5    3     2       0.1078679908E-01       4    3    2         0.2164218298E+00      0.5446585160E+00
          0                 3           1             5    3     2      -0.6168345482E-03       4    3    2        -0.1273803629E-01      0.3182439463E-01

    ------------------------------------------------
       NWT REQUIRED            3 OUTER ITERATIONS 
       AND A TOTAL OF          5 INNER ITERATIONS.
    ------------------------------------------------

 NO OUTPUT CONTROL FOR STRESS PERIOD   12   TIME STEP   37
 ..........LAKE  1 IS DRY..........
 
 SOLVING FOR HEAD 
                                                   Max.-Head-Change                         Max.-Flux-Residual
  Residual-Control   Outer-Iter.   Inner-Iter.     Column Row Layer    Maximum-Head-Change  Column Row Layer    Maximum-Flux-Residual          L2-NORM 
          0                 1           2             5    3     2      -0.1096808626E+00       4    3    2        -0.2157712094E+01      0.5610620385E+01
          0                 2           2             5    3     2       0.1049440780E-01       4    3    2         0.2132272450E+00      0.5388593410E+00
          0                 3           1             5    3     2      -0.6000120187E-03       4    3    2        -0.1254991483E-01      0.3149498178E-01

    ------------------------------------------------
       NWT REQUIRED            3 OUTER ITERATIONS 
       AND A TOTAL OF          5 INNER ITERATIONS.
    ------------------------------------------------

 NO OUTPUT CONTROL FOR STRESS PERIOD   12   TIME STEP   38
 ..........LAKE  1 IS DRY..........
 
 SOLVING FOR HEAD 
                                                   Max.-Head-Change                         Max.-Flux-Residual
  Residual-Control   Outer-Iter.   Inner-Iter.     Column Row Layer    Maximum-Head-Change  Column Row Layer    Maximum-Flux-Residual          L2-NORM 
          0                 1           2             5    3     2      -0.1067766597E+00       4    3    2        -0.2126163523E+01      0.5548111775E+01
          0                 2           2             5    3     2       0.1021561769E-01       4    3    2         0.2101067805E+00      0.5331746331E+00
          0                 3           1             5    3     2      -0.5839750438E-03       4    3    2        -0.1236623695E-01      0.3117327683E-01

    ------------------------------------------------
       NWT REQUIRED            3 OUTER ITERATIONS 
       AND A TOTAL OF          5 INNER ITERATIONS.
    ------------------------------------------------

 NO OUTPUT CONTROL FOR STRESS PERIOD   12   TIME STEP   39
 ..........LAKE  1 IS DRY..........
 
 SOLVING FOR HEAD 
                                                   Max.-Head-Change                         Max.-Flux-Residual
  Residual-Control   Outer-Iter.   Inner-Iter.     Column Row Layer    Maximum-Head-Change  Column Row Layer    Maximum-Flux-Residual          L2-NORM 
          0                 1           2             5    3     2      -0.1040038990E+00       4    3    2        -0.2095379392E+01      0.5487692837E+01
          0                 2           2             5    3     2       0.9949460572E-02       4    3    2         0.2070614832E+00      0.5276303534E+00
          0                 3           1             5    3     2      -0.5686624698E-03       4    3    2        -0.1218678537E-01      0.3086000440E-01

    ------------------------------------------------
       NWT REQUIRED            3 OUTER ITERATIONS 
       AND A TOTAL OF          5 INNER ITERATIONS.
    ------------------------------------------------

 NO OUTPUT CONTROL FOR STRESS PERIOD   12   TIME STEP   40
 ..........LAKE  1 IS DRY..........
 
 SOLVING FOR HEAD 
                                                   Max.-Head-Change                         Max.-Flux-Residual
  Residual-Control   Outer-Iter.   Inner-Iter.     Column Row Layer    Maximum-Head-Change  Column Row Layer    Maximum-Flux-Residual          L2-NORM 
          0                 1           2             5    3     2      -0.1013546482E+00       4    3    2        -0.2065333941E+01      0.5429140831E+01
          0                 2           2             5    3     2       0.9694791963E-02       4    3    2         0.2040944224E+00      0.5223097808E+00
          0                 3           1             5    3     2      -0.5540152935E-03       4    3    2        -0.1201206471E-01      0.3055894966E-01

    ------------------------------------------------
       NWT REQUIRED            3 OUTER ITERATIONS 
       AND A TOTAL OF          5 INNER ITERATIONS.
    ------------------------------------------------

 NO OUTPUT CONTROL FOR STRESS PERIOD   12   TIME STEP   41
 ..........LAKE  1 IS DRY..........
 
 SOLVING FOR HEAD 
                                                   Max.-Head-Change                         Max.-Flux-Residual
  Residual-Control   Outer-Iter.   Inner-Iter.     Column Row Layer    Maximum-Head-Change  Column Row Layer    Maximum-Flux-Residual          L2-NORM 
          0                 1           2             5    3     2      -0.9882233267E-01       4    3    2        -0.2036025263E+01      0.5372042498E+01
          0                 2           2             5    3     2       0.9451866811E-02       4    3    2         0.2011924695E+00      0.5171348175E+00
          0                 3           1             5    3     2      -0.5400431157E-03       4    3    2        -0.1184105618E-01      0.3026514792E-01

    ------------------------------------------------
       NWT REQUIRED            3 OUTER ITERATIONS 
       AND A TOTAL OF          5 INNER ITERATIONS.
    ------------------------------------------------

 NO OUTPUT CONTROL FOR STRESS PERIOD   12   TIME STEP   42
 ..........LAKE  1 IS DRY..........
 
 SOLVING FOR HEAD 
                                                   Max.-Head-Change                         Max.-Flux-Residual
  Residual-Control   Outer-Iter.   Inner-Iter.     Column Row Layer    Maximum-Head-Change  Column Row Layer    Maximum-Flux-Residual          L2-NORM 
          0                 1           2             5    3     2      -0.9640033649E-01       4    3    2        -0.2007428186E+01      0.5316571080E+01
          0                 2           2             5    3     2       0.9219289270E-02       4    3    2         0.1983642444E+00      0.5121207490E+00
          0                 3           1             5    3     2      -0.5266632327E-03       4    3    2        -0.1167427440E-01      0.2998104980E-01

    ------------------------------------------------
       NWT REQUIRED            3 OUTER ITERATIONS 
       AND A TOTAL OF          5 INNER ITERATIONS.
    ------------------------------------------------

 NO OUTPUT CONTROL FOR STRESS PERIOD   12   TIME STEP   43
 ..........LAKE  1 IS DRY..........
 
 SOLVING FOR HEAD 
                                                   Max.-Head-Change                         Max.-Flux-Residual
  Residual-Control   Outer-Iter.   Inner-Iter.     Column Row Layer    Maximum-Head-Change  Column Row Layer    Maximum-Flux-Residual          L2-NORM 
          0                 1           2             5    3     2      -0.9408193650E-01       4    3    2        -0.1979526995E+01      0.5262750674E+01
          0                 2           2             5    3     2       0.8996671643E-02       4    3    2         0.1956046201E+00      0.5072413858E+00
          0                 3           1             5    3     2      -0.5138613364E-03       4    3    2        -0.1151164604E-01      0.2970444957E-01

    ------------------------------------------------
       NWT REQUIRED            3 OUTER ITERATIONS 
       AND A TOTAL OF          5 INNER ITERATIONS.
    ------------------------------------------------

 NO OUTPUT CONTROL FOR STRESS PERIOD   12   TIME STEP   44
 ..........LAKE  1 IS DRY..........
 
 SOLVING FOR HEAD 
                                                   Max.-Head-Change                         Max.-Flux-Residual
  Residual-Control   Outer-Iter.   Inner-Iter.     Column Row Layer    Maximum-Head-Change  Column Row Layer    Maximum-Flux-Residual          L2-NORM 
          0                 1           2             5    3     2      -0.9186167997E-01       4    3    2        -0.1952313652E+01      0.5210320302E+01
          0                 2           2             5    3     2       0.8783486731E-02       4    3    2         0.1929128255E+00      0.5025249381E+00
          0                 3           1             5    3     2      -0.5015998215E-03       4    3    2        -0.1135289250E-01      0.2943676169E-01

    ------------------------------------------------
       NWT REQUIRED            3 OUTER ITERATIONS 
       AND A TOTAL OF          5 INNER ITERATIONS.
    ------------------------------------------------

 NO OUTPUT CONTROL FOR STRESS PERIOD   12   TIME STEP   45
 ..........LAKE  1 IS DRY..........
 
 SOLVING FOR HEAD 
                                                   Max.-Head-Change                         Max.-Flux-Residual
  Residual-Control   Outer-Iter.   Inner-Iter.     Column Row Layer    Maximum-Head-Change  Column Row Layer    Maximum-Flux-Residual          L2-NORM 
          0                 1           2             5    3     2      -0.8973452657E-01       4    3    2        -0.1925751738E+01      0.5159677854E+01
          0                 2           2             5    3     2       0.8579369184E-02       4    3    2         0.1902833967E+00      0.4979545830E+00
          0                 3           1             5    3     2      -0.4898657379E-03       4    3    2        -0.1119800552E-01      0.2917727170E-01

    ------------------------------------------------
       NWT REQUIRED            3 OUTER ITERATIONS 
       AND A TOTAL OF          5 INNER ITERATIONS.
    ------------------------------------------------

 NO OUTPUT CONTROL FOR STRESS PERIOD   12   TIME STEP   46
 ..........LAKE  1 IS DRY..........
 
 SOLVING FOR HEAD 
                                                   Max.-Head-Change                         Max.-Flux-Residual
  Residual-Control   Outer-Iter.   Inner-Iter.     Column Row Layer    Maximum-Head-Change  Column Row Layer    Maximum-Flux-Residual          L2-NORM 
          0                 1           2             5    3     2      -0.8769468409E-01       4    3    2        -0.1899848883E+01      0.5109834651E+01
          0                 2           2             5    3     2       0.8383516880E-02       4    3    2         0.1877206605E+00      0.4936021799E+00
          0                 3           1             5    3     2      -0.4786024331E-03       3    3    2        -0.1108515747E-01      0.2892865115E-01

    ------------------------------------------------
       NWT REQUIRED            3 OUTER ITERATIONS 
       AND A TOTAL OF          5 INNER ITERATIONS.
    ------------------------------------------------

 NO OUTPUT CONTROL FOR STRESS PERIOD   12   TIME STEP   47
 ..........LAKE  1 IS DRY..........
 
 SOLVING FOR HEAD 
                                                   Max.-Head-Change                         Max.-Flux-Residual
  Residual-Control   Outer-Iter.   Inner-Iter.     Column Row Layer    Maximum-Head-Change  Column Row Layer    Maximum-Flux-Residual          L2-NORM 
          0                 1           2             5    3     2      -0.8573797568E-01       4    3    2        -0.1874565964E+01      0.5061247124E+01
          0                 2           2             5    3     2       0.8195646834E-02       4    3    2         0.1852190255E+00      0.4890857942E+00
          0                 3           1             5    3     2      -0.4678007131E-03       3    3    2        -0.1097741332E-01      0.2867098374E-01

    ------------------------------------------------
       NWT REQUIRED            3 OUTER ITERATIONS 
       AND A TOTAL OF          5 INNER ITERATIONS.
    ------------------------------------------------

 NO OUTPUT CONTROL FOR STRESS PERIOD   12   TIME STEP   48
 ..........LAKE  1 IS DRY..........
 
 SOLVING FOR HEAD 
                                                   Max.-Head-Change                         Max.-Flux-Residual
  Residual-Control   Outer-Iter.   Inner-Iter.     Column Row Layer    Maximum-Head-Change  Column Row Layer    Maximum-Flux-Residual          L2-NORM 
          0                 1           2             5    3     2      -0.8385939332E-01       4    3    2        -0.1849895269E+01      0.5013750941E+01
          0                 2           2             5    3     2       0.8015162298E-02       4    3    2         0.1827794867E+00      0.4846532453E+00
          0                 3           1             5    3     2      -0.4574220593E-03       3    3    2        -0.1087172870E-01      0.2841897777E-01

    ------------------------------------------------
       NWT REQUIRED            3 OUTER ITERATIONS 
       AND A TOTAL OF          5 INNER ITERATIONS.
    ------------------------------------------------

 NO OUTPUT CONTROL FOR STRESS PERIOD   12   TIME STEP   49
 ..........LAKE  1 IS DRY..........
 
 SOLVING FOR HEAD 
                                                   Max.-Head-Change                         Max.-Flux-Residual
  Residual-Control   Outer-Iter.   Inner-Iter.     Column Row Layer    Maximum-Head-Change  Column Row Layer    Maximum-Flux-Residual          L2-NORM 
          0                 1           2             5    3     2      -0.8205525674E-01       4    3    2        -0.1825814485E+01      0.4967293383E+01
          0                 2           2             5    3     2       0.7842184992E-02       3    3    2         0.1809111804E+00      0.4803569042E+00
          0                 3           1             5    3     2      -0.4474795378E-03       3    3    2        -0.1076803753E-01      0.2817154901E-01

    ------------------------------------------------
       NWT REQUIRED            3 OUTER ITERATIONS 
       AND A TOTAL OF          5 INNER ITERATIONS.
    ------------------------------------------------

 NO OUTPUT CONTROL FOR STRESS PERIOD   12   TIME STEP   50
 ..........LAKE  1 IS DRY..........
 
 SOLVING FOR HEAD 
                                                   Max.-Head-Change                         Max.-Flux-Residual
  Residual-Control   Outer-Iter.   Inner-Iter.     Column Row Layer    Maximum-Head-Change  Column Row Layer    Maximum-Flux-Residual          L2-NORM 
          0                 1           2             5    3     2      -0.8032118061E-01       4    3    2        -0.1802308174E+01      0.4922120308E+01
          0                 2           2             5    3     2       0.7675585763E-02       3    3    2         0.1792026331E+00      0.4761361210E+00
          0                 3           1             5    3     2      -0.4378977026E-03       3    3    2        -0.1066614415E-01      0.2792911253E-01

    ------------------------------------------------
       NWT REQUIRED            3 OUTER ITERATIONS 
       AND A TOTAL OF          5 INNER ITERATIONS.
    ------------------------------------------------

 NO OUTPUT CONTROL FOR STRESS PERIOD   12   TIME STEP   51
 ..........LAKE  1 IS DRY..........
 
 SOLVING FOR HEAD 
                                                   Max.-Head-Change                         Max.-Flux-Residual
  Residual-Control   Outer-Iter.   Inner-Iter.     Column Row Layer    Maximum-Head-Change  Column Row Layer    Maximum-Flux-Residual          L2-NORM 
          0                 1           2             5    3     2      -0.7865433867E-01       3    3    2        -0.1784161793E+01      0.4878077333E+01
          0                 2           2             5    3     2       0.7515676356E-02       3    3    2         0.1775244221E+00      0.4720200781E+00
          0                 3           1             5    3     2      -0.4287057565E-03       3    3    2        -0.1056610214E-01      0.2769338796E-01

    ------------------------------------------------
       NWT REQUIRED            3 OUTER ITERATIONS 
       AND A TOTAL OF          5 INNER ITERATIONS.
    ------------------------------------------------

 NO OUTPUT CONTROL FOR STRESS PERIOD   12   TIME STEP   52
 ..........LAKE  1 IS DRY..........
 
 SOLVING FOR HEAD 
                                                   Max.-Head-Change                         Max.-Flux-Residual
  Residual-Control   Outer-Iter.   Inner-Iter.     Column Row Layer    Maximum-Head-Change  Column Row Layer    Maximum-Flux-Residual          L2-NORM 
          0                 1           2             5    3     2      -0.7705047083E-01       3    3    2        -0.1767613116E+01      0.4834751828E+01
          0                 2           2             5    3     2       0.7361588232E-02       3    3    2         0.1758761780E+00      0.4680089676E+00
          0                 3           1             5    3     2      -0.4199598820E-03       3    3    2        -0.1046786234E-01      0.2746209840E-01

    ------------------------------------------------
       NWT REQUIRED            3 OUTER ITERATIONS 
       AND A TOTAL OF          5 INNER ITERATIONS.
    ------------------------------------------------

 NO OUTPUT CONTROL FOR STRESS PERIOD   12   TIME STEP   53
 ..........LAKE  1 IS DRY..........
 
 SOLVING FOR HEAD 
                                                   Max.-Head-Change                         Max.-Flux-Residual
  Residual-Control   Outer-Iter.   Inner-Iter.     Column Row Layer    Maximum-Head-Change  Column Row Layer    Maximum-Flux-Residual          L2-NORM 
          0                 1           2             5    3     2      -0.7550743030E-01       3    3    2        -0.1751340194E+01      0.4792961290E+01
          0                 2           2             5    3     2       0.7213569614E-02       3    3    2         0.1742552207E+00      0.4640640561E+00
          0                 3           1             5    3     2      -0.4113420560E-03       3    3    2        -0.1037120954E-01      0.2723537921E-01

    ------------------------------------------------
       NWT REQUIRED            3 OUTER ITERATIONS 
       AND A TOTAL OF          5 INNER ITERATIONS.
    ------------------------------------------------

 NO OUTPUT CONTROL FOR STRESS PERIOD   12   TIME STEP   54
 ..........LAKE  1 IS DRY..........
 
 SOLVING FOR HEAD 
                                                   Max.-Head-Change                         Max.-Flux-Residual
  Residual-Control   Outer-Iter.   Inner-Iter.     Column Row Layer    Maximum-Head-Change  Column Row Layer    Maximum-Flux-Residual          L2-NORM 
          0                 1           2             5    3     2      -0.7402055057E-01       3    3    2        -0.1735354283E+01      0.4751652354E+01
          0                 2           2             5    3     2       0.6948242379E-02       3    2    2         0.1707485101E+00      0.4586147659E+00
          0                 3           1             6    3     2      -0.4005656801E-03       3    2    2        -0.1024493124E-01      0.2691668505E-01

    ------------------------------------------------
       NWT REQUIRED            3 OUTER ITERATIONS 
       AND A TOTAL OF          5 INNER ITERATIONS.
    ------------------------------------------------

 NO OUTPUT CONTROL FOR STRESS PERIOD   12   TIME STEP   55
 ..........LAKE  1 IS DRY..........
 
 SOLVING FOR HEAD 
                                                   Max.-Head-Change                         Max.-Flux-Residual
  Residual-Control   Outer-Iter.   Inner-Iter.     Column Row Layer    Maximum-Head-Change  Column Row Layer    Maximum-Flux-Residual          L2-NORM 
          0                 1           2             5    3     2      -0.7303978920E-01       3    3    2        -0.1721928499E+01      0.4712753329E+01
          0                 2           2             5    3     2       0.6976559813E-02       3    3    2         0.1713259548E+00      0.4565092318E+00
          0                 3           1             5    3     2      -0.3977054855E-03       3    2    2        -0.1020924382E-01      0.2680091679E-01

    ------------------------------------------------
       NWT REQUIRED            3 OUTER ITERATIONS 
       AND A TOTAL OF          5 INNER ITERATIONS.
    ------------------------------------------------

 NO OUTPUT CONTROL FOR STRESS PERIOD   12   TIME STEP   56
 ..........LAKE  1 IS DRY..........
 
 SOLVING FOR HEAD 
                                                   Max.-Head-Change                         Max.-Flux-Residual
  Residual-Control   Outer-Iter.   Inner-Iter.     Column Row Layer    Maximum-Head-Change  Column Row Layer    Maximum-Flux-Residual          L2-NORM 
          0                 1           2             5    3     2      -0.7195728355E-01       3    3    2        -0.1710804665E+01      0.4675919080E+01
          0                 2           2             5    3     2       0.6872756044E-02       3    3    2         0.1702192222E+00      0.4530634804E+00
          0                 3           1             5    3     2      -0.3917495474E-03       3    2    2        -0.1017293953E-01      0.2660297168E-01

    ------------------------------------------------
       NWT REQUIRED            3 OUTER ITERATIONS 
       AND A TOTAL OF          5 INNER ITERATIONS.
    ------------------------------------------------

 NO OUTPUT CONTROL FOR STRESS PERIOD   12   TIME STEP   57
 ..........LAKE  1 IS DRY..........
 
 SOLVING FOR HEAD 
                                                   Max.-Head-Change                         Max.-Flux-Residual
  Residual-Control   Outer-Iter.   Inner-Iter.     Column Row Layer    Maximum-Head-Change  Column Row Layer    Maximum-Flux-Residual          L2-NORM 
          0                 1           2             5    3     2      -0.7089913716E-01       3    3    2        -0.1699590963E+01      0.4639756368E+01
          0                 2           2             5    3     2       0.6771281825E-02       3    3    2         0.1691032971E+00      0.4496888400E+00
          0                 3           1             5    3     2      -0.3859283061E-03       3    2    2        -0.1013601679E-01      0.2640990964E-01

    ------------------------------------------------
       NWT REQUIRED            3 OUTER ITERATIONS 
       AND A TOTAL OF          5 INNER ITERATIONS.
    ------------------------------------------------

 NO OUTPUT CONTROL FOR STRESS PERIOD   12   TIME STEP   58
 ..........LAKE  1 IS DRY..........
 
 SOLVING FOR HEAD 
                                                   Max.-Head-Change                         Max.-Flux-Residual
  Residual-Control   Outer-Iter.   Inner-Iter.     Column Row Layer    Maximum-Head-Change  Column Row Layer    Maximum-Flux-Residual          L2-NORM 
          0                 1           2             5    3     2      -0.6986544895E-01       3    3    2        -0.1688316145E+01      0.4604570580E+01
          0                 2           2             5    3     2       0.6672149361E-02       3    2    2         0.1683088499E+00      0.4463655075E+00
          0                 3           1             5    3     2      -0.3802399256E-03       3    2    2        -0.1009855094E-01      0.2621781855E-01

    ------------------------------------------------
       NWT REQUIRED            3 OUTER ITERATIONS 
       AND A TOTAL OF          5 INNER ITERATIONS.
    ------------------------------------------------

 NO OUTPUT CONTROL FOR STRESS PERIOD   12   TIME STEP   59
 ..........LAKE  1 IS DRY..........
 
 SOLVING FOR HEAD 
                                                   Max.-Head-Change                         Max.-Flux-Residual
  Residual-Control   Outer-Iter.   Inner-Iter.     Column Row Layer    Maximum-Head-Change  Column Row Layer    Maximum-Flux-Residual          L2-NORM 
          0                 1           2             5    3     2      -0.6885623387E-01       3    3    2        -0.1676998525E+01      0.4570421366E+01
          0                 2           2             5    3     2       0.6575359991E-02       3    2    2         0.1676756723E+00      0.4431119896E+00
          0                 3           1             5    3     2      -0.3746844738E-03       3    2    2        -0.1006056048E-01      0.2603022967E-01

    ------------------------------------------------
       NWT REQUIRED            3 OUTER ITERATIONS 
       AND A TOTAL OF          5 INNER ITERATIONS.
    ------------------------------------------------

 NO OUTPUT CONTROL FOR STRESS PERIOD   12   TIME STEP   60
 ..........LAKE  1 IS DRY..........
 
 SOLVING FOR HEAD 
                                                   Max.-Head-Change                         Max.-Flux-Residual
  Residual-Control   Outer-Iter.   Inner-Iter.     Column Row Layer    Maximum-Head-Change  Column Row Layer    Maximum-Flux-Residual          L2-NORM 
          0                 1           2             5    3     2      -0.6787050157E-01       3    2    2        -0.1670368036E+01      0.4537115345E+01
          0                 2           2             5    3     2       0.6481039584E-02       3    2    2         0.1670343535E+00      0.4399129030E+00
          0                 3           1             5    3     2      -0.3693763562E-03       3    2    2        -0.1002208154E-01      0.2584502079E-01

    ------------------------------------------------
       NWT REQUIRED            3 OUTER ITERATIONS 
       AND A TOTAL OF          5 INNER ITERATIONS.
    ------------------------------------------------

 NO OUTPUT CONTROL FOR STRESS PERIOD   12   TIME STEP   61
 ..........LAKE  1 IS DRY..........
 
 SOLVING FOR HEAD 
                                                   Max.-Head-Change                         Max.-Flux-Residual
  Residual-Control   Outer-Iter.   Inner-Iter.     Column Row Layer    Maximum-Head-Change  Column Row Layer    Maximum-Flux-Residual          L2-NORM 
          0                 1           2             5    3     2      -0.6690824261E-01       3    2    2        -0.1663879883E+01      0.4504523911E+01
          0                 2           2             5    3     2       0.6388754488E-02       3    2    2         0.1663855201E+00      0.4368386883E+00
          0                 3           1             5    3     2      -0.3639743084E-03       3    2    2        -0.9983151716E-02      0.2566502611E-01

    ------------------------------------------------
       NWT REQUIRED            3 OUTER ITERATIONS 
       AND A TOTAL OF          5 INNER ITERATIONS.
    ------------------------------------------------

 NO OUTPUT CONTROL FOR STRESS PERIOD   12   TIME STEP   62
 ..........LAKE  1 IS DRY..........
 
 SOLVING FOR HEAD 
                                                   Max.-Head-Change                         Max.-Flux-Residual
  Residual-Control   Outer-Iter.   Inner-Iter.     Column Row Layer    Maximum-Head-Change  Column Row Layer    Maximum-Flux-Residual          L2-NORM 
          0                 1           2             5    3     2      -0.6596866491E-01       3    2    2        -0.1657325473E+01      0.4472134168E+01
          0                 2           2             5    3     2       0.6298419624E-02       3    2    2         0.1657300630E+00      0.4337804839E+00
          0                 3           1             5    3     2      -0.3587890036E-03       3    2    2        -0.9943824447E-02      0.2548755384E-01

    ------------------------------------------------
       NWT REQUIRED            3 OUTER ITERATIONS 
       AND A TOTAL OF          5 INNER ITERATIONS.
    ------------------------------------------------

 NO OUTPUT CONTROL FOR STRESS PERIOD   12   TIME STEP   63
 ..........LAKE  1 IS DRY..........
 
 SOLVING FOR HEAD 
                                                   Max.-Head-Change                         Max.-Flux-Residual
  Residual-Control   Outer-Iter.   Inner-Iter.     Column Row Layer    Maximum-Head-Change  Column Row Layer    Maximum-Flux-Residual          L2-NORM 
          0                 1           2             5    3     2      -0.6505164546E-01       3    2    2        -0.1650704196E+01      0.4440213114E+01
          0                 2           2             5    3     2       0.6210675950E-02       3    2    2         0.1650679211E+00      0.4307502822E+00
          0                 3           1             5    3     2      -0.3538561605E-03       3    2    2        -0.9904096061E-02      0.2531206937E-01

    ------------------------------------------------
       NWT REQUIRED            3 OUTER ITERATIONS 
       AND A TOTAL OF          5 INNER ITERATIONS.
    ------------------------------------------------

 NO OUTPUT CONTROL FOR STRESS PERIOD   12   TIME STEP   64
 ..........LAKE  1 IS DRY..........
 
 SOLVING FOR HEAD 
                                                   Max.-Head-Change                         Max.-Flux-Residual
  Residual-Control   Outer-Iter.   Inner-Iter.     Column Row Layer    Maximum-Head-Change  Column Row Layer    Maximum-Flux-Residual          L2-NORM 
          0                 1           2             5    3     2      -0.6415627075E-01       3    2    2        -0.1644028144E+01      0.4408945116E+01
          0                 2           2             5    3     2       0.6124688390E-02       3    2    2         0.1644003037E+00      0.4277873060E+00
          0                 3           1             3    2     2      -0.3511710351E-03       3    2    2        -0.9864039142E-02      0.2514065459E-01

    ------------------------------------------------
       NWT REQUIRED            3 OUTER ITERATIONS 
       AND A TOTAL OF          5 INNER ITERATIONS.
    ------------------------------------------------

 NO OUTPUT CONTROL FOR STRESS PERIOD   12   TIME STEP   65
 ..........LAKE  1 IS DRY..........
 
 SOLVING FOR HEAD 
                                                   Max.-Head-Change                         Max.-Flux-Residual
  Residual-Control   Outer-Iter.   Inner-Iter.     Column Row Layer    Maximum-Head-Change  Column Row Layer    Maximum-Flux-Residual          L2-NORM 
          0                 1           2             5    3     2      -0.6328206395E-01       3    2    2        -0.1637296324E+01      0.4378253052E+01
          0                 2           2             3    2     2       0.6049375294E-02       3    2    2         0.1637271113E+00      0.4235439935E+00
          0                 3           1             3    2     2      -0.3497129796E-03       3    2    2        -0.9823647774E-02      0.2487789615E-01

    ------------------------------------------------
       NWT REQUIRED            3 OUTER ITERATIONS 
       AND A TOTAL OF          5 INNER ITERATIONS.
    ------------------------------------------------

 NO OUTPUT CONTROL FOR STRESS PERIOD   12   TIME STEP   66
 ..........LAKE  1 IS DRY..........
 
 SOLVING FOR HEAD 
                                                   Max.-Head-Change                         Max.-Flux-Residual
  Residual-Control   Outer-Iter.   Inner-Iter.     Column Row Layer    Maximum-Head-Change  Column Row Layer    Maximum-Flux-Residual          L2-NORM 
          0                 1           2             3    2     2      -0.6252724378E-01       3    2    2        -0.1630522256E+01      0.4349334014E+01
          0                 2           2             3    2     2       0.6024186532E-02       3    2    2         0.1630496982E+00      0.4220059656E+00
          0                 3           1             3    2     2      -0.3482569799E-03       3    2    2        -0.9783002977E-02      0.2479324529E-01

    ------------------------------------------------
       NWT REQUIRED            3 OUTER ITERATIONS 
       AND A TOTAL OF          5 INNER ITERATIONS.
    ------------------------------------------------

 NO OUTPUT CONTROL FOR STRESS PERIOD   12   TIME STEP   67
 ..........LAKE  1 IS DRY..........
 
 SOLVING FOR HEAD 
                                                   Max.-Head-Change                         Max.-Flux-Residual
  Residual-Control   Outer-Iter.   Inner-Iter.     Column Row Layer    Maximum-Head-Change  Column Row Layer    Maximum-Flux-Residual          L2-NORM 
          0                 1           2             3    2     2      -0.6226372793E-01       3    2    2        -0.1623710105E+01      0.4321249963E+01
          0                 2           2             3    2     2       0.5998798690E-02       3    2    2         0.1623684786E+00      0.4193170197E+00
          0                 3           1             3    2     2      -0.3467894569E-03       3    2    2        -0.9742129842E-02      0.2463786832E-01

    ------------------------------------------------
       NWT REQUIRED            3 OUTER ITERATIONS 
       AND A TOTAL OF          5 INNER ITERATIONS.
    ------------------------------------------------

 NO OUTPUT CONTROL FOR STRESS PERIOD   12   TIME STEP   68
 ..........LAKE  1 IS DRY..........
 
 SOLVING FOR HEAD 
                                                   Max.-Head-Change                         Max.-Flux-Residual
  Residual-Control   Outer-Iter.   Inner-Iter.     Column Row Layer    Maximum-Head-Change  Column Row Layer    Maximum-Flux-Residual          L2-NORM 
          0                 1           2             3    2     2      -0.6199911615E-01       3    2    2        -0.1616863446E+01      0.4293647319E+01
          0                 2           2             3    2     2       0.5973305139E-02       3    2    2         0.1616838102E+00      0.4166706098E+00
          0                 3           1             3    2     2      -0.3453156577E-03       3    2    2        -0.9701049774E-02      0.2448417513E-01

    ------------------------------------------------
       NWT REQUIRED            3 OUTER ITERATIONS 
       AND A TOTAL OF          5 INNER ITERATIONS.
    ------------------------------------------------

 NO OUTPUT CONTROL FOR STRESS PERIOD   12   TIME STEP   69
 ..........LAKE  1 IS DRY..........
 
 SOLVING FOR HEAD 
                                                   Max.-Head-Change                         Max.-Flux-Residual
  Residual-Control   Outer-Iter.   Inner-Iter.     Column Row Layer    Maximum-Head-Change  Column Row Layer    Maximum-Flux-Residual          L2-NORM 
          0                 1           2             3    2     2      -0.6173384920E-01       3    2    2        -0.1609994519E+01      0.4266664922E+01
          0                 2           2             3    2     2       0.5947748376E-02       3    2    2         0.1609969169E+00      0.4140904116E+00
          0                 3           1             3    2     2      -0.3438384031E-03       3    2    2        -0.9659836190E-02      0.2433420020E-01

    ------------------------------------------------
       NWT REQUIRED            3 OUTER ITERATIONS 
       AND A TOTAL OF          5 INNER ITERATIONS.
    ------------------------------------------------

 NO OUTPUT CONTROL FOR STRESS PERIOD   12   TIME STEP   70
 ..........LAKE  1 IS DRY..........
 
 SOLVING FOR HEAD 
                                                   Max.-Head-Change                         Max.-Flux-Residual
  Residual-Control   Outer-Iter.   Inner-Iter.     Column Row Layer    Maximum-Head-Change  Column Row Layer    Maximum-Flux-Residual          L2-NORM 
          0                 1           2             3    2     2      -0.6146799965E-01       3    2    2        -0.1603105527E+01      0.4240242579E+01
          0                 2           2             3    2     2       0.5922135295E-02       3    2    2         0.1603080190E+00      0.4115361048E+00
          0                 3           1             3    2     2      -0.3423577374E-03       3    2    2        -0.9618502308E-02      0.2418547951E-01

    ------------------------------------------------
       NWT REQUIRED            3 OUTER ITERATIONS 
       AND A TOTAL OF          5 INNER ITERATIONS.
    ------------------------------------------------

 NO OUTPUT CONTROL FOR STRESS PERIOD   12   TIME STEP   71
 ..........LAKE  1 IS DRY..........
 
 SOLVING FOR HEAD 
                                                   Max.-Head-Change                         Max.-Flux-Residual
  Residual-Control   Outer-Iter.   Inner-Iter.     Column Row Layer    Maximum-Head-Change  Column Row Layer    Maximum-Flux-Residual          L2-NORM 
          0                 1           2             3    2     2      -0.6120173663E-01       3    2    2        -0.1596201427E+01      0.4214194766E+01
          0                 2           2             3    2     2       0.5896482221E-02       3    2    2         0.1596176117E+00      0.4090136490E+00
          0                 3           1             3    2     2      -0.3408747428E-03       3    2    2        -0.9577077858E-02      0.2403883531E-01

    ------------------------------------------------
       NWT REQUIRED            3 OUTER ITERATIONS 
       AND A TOTAL OF          5 INNER ITERATIONS.
    ------------------------------------------------

 NO OUTPUT CONTROL FOR STRESS PERIOD   12   TIME STEP   72
 ..........LAKE  1 IS DRY..........
 
 SOLVING FOR HEAD 
                                                   Max.-Head-Change                         Max.-Flux-Residual
  Residual-Control   Outer-Iter.   Inner-Iter.     Column Row Layer    Maximum-Head-Change  Column Row Layer    Maximum-Flux-Residual          L2-NORM 
          0                 1           2             3    2     2      -0.6093522637E-01       3    2    2        -0.1589286610E+01      0.4188946557E+01
          0                 2           2             3    2     2       0.5870805453E-02       3    2    2         0.1589261342E+00      0.4066058222E+00
          0                 3           1             3    2     2      -0.3393904237E-03       3    2    2        -0.9535589168E-02      0.2389667989E-01

    ------------------------------------------------
       NWT REQUIRED            3 OUTER ITERATIONS 
       AND A TOTAL OF          5 INNER ITERATIONS.
    ------------------------------------------------

 NO OUTPUT CONTROL FOR STRESS PERIOD   12   TIME STEP   73
 ..........LAKE  1 IS DRY..........
 
 SOLVING FOR HEAD 
                                                   Max.-Head-Change                         Max.-Flux-Residual
  Residual-Control   Outer-Iter.   Inner-Iter.     Column Row Layer    Maximum-Head-Change  Column Row Layer    Maximum-Flux-Residual          L2-NORM 
          0                 1           2             3    2     2      -0.6066849472E-01       3    2    2        -0.1582362306E+01      0.4163723534E+01
          0                 2           2             3    2     2       0.5845107044E-02       3    2    2         0.1582337093E+00      0.4041789137E+00
          0                 3           1             3    2     2      -0.3379047945E-03       3    2    2        -0.9494043639E-02      0.2375506209E-01

    ------------------------------------------------
       NWT REQUIRED            3 OUTER ITERATIONS 
       AND A TOTAL OF          5 INNER ITERATIONS.
    ------------------------------------------------

 NO OUTPUT CONTROL FOR STRESS PERIOD   12   TIME STEP   74
 ..........LAKE  1 IS DRY..........
 
 SOLVING FOR HEAD 
                                                   Max.-Head-Change                         Max.-Flux-Residual
  Residual-Control   Outer-Iter.   Inner-Iter.     Column Row Layer    Maximum-Head-Change  Column Row Layer    Maximum-Flux-Residual          L2-NORM 
          0                 1           2             3    2     2      -0.6040190641E-01       3    2    2        -0.1575438423E+01      0.4138714861E+01
          0                 2           2             3    2     2       0.5819422286E-02       3    2    2         0.1575413277E+00      0.4016705095E+00
          0                 3           1             3    2     2      -0.3364199560E-03       3    2    2        -0.9452500686E-02      0.2360872065E-01

    ------------------------------------------------
       NWT REQUIRED            3 OUTER ITERATIONS 
       AND A TOTAL OF          5 INNER ITERATIONS.
    ------------------------------------------------

 NO OUTPUT CONTROL FOR STRESS PERIOD   12   TIME STEP   75
 ..........LAKE  1 IS DRY..........
 
 SOLVING FOR HEAD 
                                                   Max.-Head-Change                         Max.-Flux-Residual
  Residual-Control   Outer-Iter.   Inner-Iter.     Column Row Layer    Maximum-Head-Change  Column Row Layer    Maximum-Flux-Residual          L2-NORM 
          0                 1           2             3    2     2      -0.6013546543E-01       3    2    2        -0.1568515193E+01      0.4114206813E+01
          0                 2           2             3    2     2       0.5793751626E-02       3    2    2         0.1568490125E+00      0.3993935589E+00
          0                 3           1             3    2     2      -0.3349359110E-03       3    2    2        -0.9410961716E-02      0.2347630137E-01

    ------------------------------------------------
       NWT REQUIRED            3 OUTER ITERATIONS 
       AND A TOTAL OF          5 INNER ITERATIONS.
    ------------------------------------------------

 NO OUTPUT CONTROL FOR STRESS PERIOD   12   TIME STEP   76
 ..........LAKE  1 IS DRY..........
 
 SOLVING FOR HEAD 
                                                   Max.-Head-Change                         Max.-Flux-Residual
  Residual-Control   Outer-Iter.   Inner-Iter.     Column Row Layer    Maximum-Head-Change  Column Row Layer    Maximum-Flux-Residual          L2-NORM 
          0                 1           2             3    2     2      -0.5986928151E-01       3    2    2        -0.1561595794E+01      0.4090384194E+01
          0                 2           2             3    2     2       0.5768105615E-02       3    2    2         0.1561570814E+00      0.3971129447E+00
          0                 3           1             3    2     2      -0.3334533064E-03       3    2    2        -0.9369445764E-02      0.2334327869E-01

    ------------------------------------------------
       NWT REQUIRED            3 OUTER ITERATIONS 
       AND A TOTAL OF          5 INNER ITERATIONS.
    ------------------------------------------------

 NO OUTPUT CONTROL FOR STRESS PERIOD   12   TIME STEP   77
 ..........LAKE  1 IS DRY..........
 
 SOLVING FOR HEAD 
                                                   Max.-Head-Change                         Max.-Flux-Residual
  Residual-Control   Outer-Iter.   Inner-Iter.     Column Row Layer    Maximum-Head-Change  Column Row Layer    Maximum-Flux-Residual          L2-NORM 
          0                 1           2             3    2     2      -0.5960345698E-01       3    2    2        -0.1554683075E+01      0.4066937545E+01
          0                 2           2             3    2     2       0.5742494084E-02       3    2    2         0.1554658190E+00      0.3948512565E+00
          0                 3           1             3    2     2      -0.3319726409E-03       3    2    2        -0.9327969943E-02      0.2321161691E-01

    ------------------------------------------------
       NWT REQUIRED            3 OUTER ITERATIONS 
       AND A TOTAL OF          5 INNER ITERATIONS.
    ------------------------------------------------

 NO OUTPUT CONTROL FOR STRESS PERIOD   12   TIME STEP   78
 ..........LAKE  1 IS DRY..........
 
 SOLVING FOR HEAD 
                                                   Max.-Head-Change                         Max.-Flux-Residual
  Residual-Control   Outer-Iter.   Inner-Iter.     Column Row Layer    Maximum-Head-Change  Column Row Layer    Maximum-Flux-Residual          L2-NORM 
          0                 1           2             3    2     2      -0.5933808098E-01       3    2    2        -0.1547779688E+01      0.4043980842E+01
          0                 2           2             3    2     2       0.5716925830E-02       3    2    2         0.1547754907E+00      0.3926127475E+00
          0                 3           1             3    2     2      -0.3304944871E-03       3    2    2        -0.9286550155E-02      0.2307654392E-01

    ------------------------------------------------
       NWT REQUIRED            3 OUTER ITERATIONS 
       AND A TOTAL OF          5 INNER ITERATIONS.
    ------------------------------------------------

 NO OUTPUT CONTROL FOR STRESS PERIOD   12   TIME STEP   79
 ..........LAKE  1 IS DRY..........
 
 SOLVING FOR HEAD 
                                                   Max.-Head-Change                         Max.-Flux-Residual
  Residual-Control   Outer-Iter.   Inner-Iter.     Column Row Layer    Maximum-Head-Change  Column Row Layer    Maximum-Flux-Residual          L2-NORM 
          0                 1           2             3    2     2      -0.5907324347E-01       3    2    2        -0.1540887943E+01      0.4022019417E+01
          0                 2           2             3    2     2       0.5691409209E-02       3    2    2         0.1540863274E+00      0.3904155424E+00
          0                 3           1             3    2     2      -0.3290192791E-03       3    2    2        -0.9245200261E-02      0.2294758240E-01

    ------------------------------------------------
       NWT REQUIRED            3 OUTER ITERATIONS 
       AND A TOTAL OF          5 INNER ITERATIONS.
    ------------------------------------------------

 NO OUTPUT CONTROL FOR STRESS PERIOD   12   TIME STEP   80
 ..........LAKE  1 IS DRY..........
 
 SOLVING FOR HEAD 
                                                   Max.-Head-Change                         Max.-Flux-Residual
  Residual-Control   Outer-Iter.   Inner-Iter.     Column Row Layer    Maximum-Head-Change  Column Row Layer    Maximum-Flux-Residual          L2-NORM 
          0                 1           2             3    2     2      -0.5880901367E-01       3    2    2        -0.1534010180E+01      0.3999945513E+01
          0                 2           2             3    2     2       0.5665951096E-02       3    2    2         0.1533985628E+00      0.3882858328E+00
          0                 3           1             3    2     2      -0.3275474637E-03       3    2    2        -0.9203934291E-02      0.2282223682E-01

    ------------------------------------------------
       NWT REQUIRED            3 OUTER ITERATIONS 
       AND A TOTAL OF          5 INNER ITERATIONS.
    ------------------------------------------------

 NO OUTPUT CONTROL FOR STRESS PERIOD   12   TIME STEP   81
 ..........LAKE  1 IS DRY..........
 
 SOLVING FOR HEAD 
                                                   Max.-Head-Change                         Max.-Flux-Residual
  Residual-Control   Outer-Iter.   Inner-Iter.     Column Row Layer    Maximum-Head-Change  Column Row Layer    Maximum-Flux-Residual          L2-NORM 
          0                 1           2             3    2     2      -0.5854546842E-01       3    2    2        -0.1527148191E+01      0.3978013089E+01
          0                 2           2             3    2     2       0.5640558778E-02       3    2    2         0.1527123764E+00      0.3861964287E+00
          0                 3           1             3    2     2      -0.3260793848E-03       3    2    2        -0.9162762997E-02      0.2272341988E-01

    ------------------------------------------------
       NWT REQUIRED            3 OUTER ITERATIONS 
       AND A TOTAL OF          5 INNER ITERATIONS.
    ------------------------------------------------

 NO OUTPUT CONTROL FOR STRESS PERIOD   12   TIME STEP   82
 ..........LAKE  1 IS DRY..........
 
 SOLVING FOR HEAD 
                                                   Max.-Head-Change                         Max.-Flux-Residual
  Residual-Control   Outer-Iter.   Inner-Iter.     Column Row Layer    Maximum-Head-Change  Column Row Layer    Maximum-Flux-Residual          L2-NORM 
          0                 1           2             3    2     2      -0.5828266886E-01       3    2    2        -0.1520303972E+01      0.3956148344E+01
          0                 2           2             3    2     2       0.5615238266E-02       3    2    2         0.1520279674E+00      0.3841062519E+00
          0                 3           1             3    2     2      -0.3246155641E-03       3    2    2        -0.9121698332E-02      0.2260404325E-01

    ------------------------------------------------
       NWT REQUIRED            3 OUTER ITERATIONS 
       AND A TOTAL OF          5 INNER ITERATIONS.
    ------------------------------------------------

 NO OUTPUT CONTROL FOR STRESS PERIOD   12   TIME STEP   83
 ..........LAKE  1 IS DRY..........
 
 SOLVING FOR HEAD 
                                                   Max.-Head-Change                         Max.-Flux-Residual
  Residual-Control   Outer-Iter.   Inner-Iter.     Column Row Layer    Maximum-Head-Change  Column Row Layer    Maximum-Flux-Residual          L2-NORM 
          0                 1           2             3    2     2      -0.5802067791E-01       3    2    2        -0.1513479109E+01      0.3934703748E+01
          0                 2           2             3    2     2       0.5589995693E-02       3    2    2         0.1513454946E+00      0.3820244120E+00
          0                 3           1             3    2     2      -0.3231561836E-03       3    2    2        -0.9080749864E-02      0.2247693982E-01

    ------------------------------------------------
       NWT REQUIRED            3 OUTER ITERATIONS 
       AND A TOTAL OF          5 INNER ITERATIONS.
    ------------------------------------------------

 NO OUTPUT CONTROL FOR STRESS PERIOD   12   TIME STEP   84
 ..........LAKE  1 IS DRY..........
 
 SOLVING FOR HEAD 
                                                   Max.-Head-Change                         Max.-Flux-Residual
  Residual-Control   Outer-Iter.   Inner-Iter.     Column Row Layer    Maximum-Head-Change  Column Row Layer    Maximum-Flux-Residual          L2-NORM 
          0                 1           2             3    2     2      -0.5775955250E-01       3    2    2        -0.1506675229E+01      0.3913613306E+01
          0                 2           2             3    2     2       0.5564836249E-02       3    2    2         0.1506651204E+00      0.3799678142E+00
          0                 3           1             3    2     2      -0.3217015268E-03       3    2    2        -0.9039927290E-02      0.2235479381E-01

    ------------------------------------------------
       NWT REQUIRED            3 OUTER ITERATIONS 
       AND A TOTAL OF          5 INNER ITERATIONS.
    ------------------------------------------------

 NO OUTPUT CONTROL FOR STRESS PERIOD   12   TIME STEP   85
 ..........LAKE  1 IS DRY..........
 
 SOLVING FOR HEAD 
                                                   Max.-Head-Change                         Max.-Flux-Residual
  Residual-Control   Outer-Iter.   Inner-Iter.     Column Row Layer    Maximum-Head-Change  Column Row Layer    Maximum-Flux-Residual          L2-NORM 
          0                 1           2             3    2     2      -0.5749945427E-01       3    2    2        -0.1499896880E+01      0.3892665694E+01
          0                 2           2             3    2     2       0.5539775791E-02       3    2    2         0.1499872998E+00      0.3779385694E+00
          0                 3           1             3    2     2      -0.3202527610E-03       3    2    2        -0.8999257930E-02      0.2223518108E-01

    ------------------------------------------------
       NWT REQUIRED            3 OUTER ITERATIONS 
       AND A TOTAL OF          5 INNER ITERATIONS.
    ------------------------------------------------

 NO OUTPUT CONTROL FOR STRESS PERIOD   12   TIME STEP   86
 ..........LAKE  1 IS DRY..........
 
 SOLVING FOR HEAD 
                                                   Max.-Head-Change                         Max.-Flux-Residual
  Residual-Control   Outer-Iter.   Inner-Iter.     Column Row Layer    Maximum-Head-Change  Column Row Layer    Maximum-Flux-Residual          L2-NORM 
          0                 1           2             3    2     2      -0.5724019349E-01       3    2    2        -0.1493139062E+01      0.3872129854E+01
          0                 2           2             3    2     2       0.5514796015E-02       3    2    2         0.1493115326E+00      0.3759503879E+00
          0                 3           1             3    2     2      -0.3188085215E-03       3    2    2        -0.8958711771E-02      0.2211714944E-01

    ------------------------------------------------
       NWT REQUIRED            3 OUTER ITERATIONS 
       AND A TOTAL OF          5 INNER ITERATIONS.
    ------------------------------------------------

 NO OUTPUT CONTROL FOR STRESS PERIOD   12   TIME STEP   87
 ..........LAKE  1 IS DRY..........
 
 SOLVING FOR HEAD 
                                                   Max.-Head-Change                         Max.-Flux-Residual
  Residual-Control   Outer-Iter.   Inner-Iter.     Column Row Layer    Maximum-Head-Change  Column Row Layer    Maximum-Flux-Residual          L2-NORM 
          0                 1           2             3    2     2      -0.5698193263E-01       3    2    2        -0.1486406038E+01      0.3851975918E+01
          0                 2           2             3    2     2       0.5489912345E-02       3    2    2         0.1486382452E+00      0.3739707078E+00
          0                 3           1             3    2     2      -0.3173697730E-03       3    2    2        -0.8918314396E-02      0.2199925688E-01

    ------------------------------------------------
       NWT REQUIRED            3 OUTER ITERATIONS 
       AND A TOTAL OF          5 INNER ITERATIONS.
    ------------------------------------------------

 NO OUTPUT CONTROL FOR STRESS PERIOD   12   TIME STEP   88
 ..........LAKE  1 IS DRY..........
 
 SOLVING FOR HEAD 
                                                   Max.-Head-Change                         Max.-Flux-Residual
  Residual-Control   Outer-Iter.   Inner-Iter.     Column Row Layer    Maximum-Head-Change  Column Row Layer    Maximum-Flux-Residual          L2-NORM 
          0                 1           2             3    2     2      -0.5672482617E-01       3    2    2        -0.1479702028E+01      0.3831982282E+01
          0                 2           2             3    2     2       0.5465139939E-02       3    2    2         0.1479678596E+00      0.3720343874E+00
          0                 3           1             3    2     2      -0.3159376198E-03       3    2    2        -0.8878091119E-02      0.2188489205E-01

    ------------------------------------------------
       NWT REQUIRED            3 OUTER ITERATIONS 
       AND A TOTAL OF          5 INNER ITERATIONS.
    ------------------------------------------------

 NO OUTPUT CONTROL FOR STRESS PERIOD   12   TIME STEP   89
 ..........LAKE  1 IS DRY..........
 
 SOLVING FOR HEAD 
                                                   Max.-Head-Change                         Max.-Flux-Residual
  Residual-Control   Outer-Iter.   Inner-Iter.     Column Row Layer    Maximum-Head-Change  Column Row Layer    Maximum-Flux-Residual          L2-NORM 
          0                 1           2             3    2     2      -0.5646867552E-01       3    2    2        -0.1473021855E+01      0.3812418553E+01
          0                 2           2             3    2     2       0.5440459548E-02       3    2    2         0.1472998578E+00      0.3701155411E+00
          0                 3           1             3    2     2      -0.3145106416E-03       3    2    2        -0.8838010884E-02      0.2177053054E-01

    ------------------------------------------------
       NWT REQUIRED            3 OUTER ITERATIONS 
       AND A TOTAL OF          5 INNER ITERATIONS.
    ------------------------------------------------

 NO OUTPUT CONTROL FOR STRESS PERIOD   12   TIME STEP   90
 ..........LAKE  1 IS DRY..........
 
 SOLVING FOR HEAD 
                                                   Max.-Head-Change                         Max.-Flux-Residual
  Residual-Control   Outer-Iter.   Inner-Iter.     Column Row Layer    Maximum-Head-Change  Column Row Layer    Maximum-Flux-Residual          L2-NORM 
          0                 1           2             3    2     2      -0.5621374607E-01       3    2    2        -0.1466372606E+01      0.3793081351E+01
          0                 2           2             3    2     2       0.5415896771E-02       3    2    2         0.1466349487E+00      0.3682121206E+00
          0                 3           1             3    2     2      -0.3130905795E-03       3    2    2        -0.8798116194E-02      0.2165869622E-01

    ------------------------------------------------
       NWT REQUIRED            3 OUTER ITERATIONS 
       AND A TOTAL OF          5 INNER ITERATIONS.
    ------------------------------------------------

 NO OUTPUT CONTROL FOR STRESS PERIOD   12   TIME STEP   91
 ..........LAKE  1 IS DRY..........
 
 SOLVING FOR HEAD 
                                                   Max.-Head-Change                         Max.-Flux-Residual
  Residual-Control   Outer-Iter.   Inner-Iter.     Column Row Layer    Maximum-Head-Change  Column Row Layer    Maximum-Flux-Residual          L2-NORM 
          0                 1           2             3    2     2      -0.5595983783E-01       3    2    2        -0.1459748930E+01      0.3774110491E+01
          0                 2           2             3    2     2       0.5391432299E-02       3    2    2         0.1459725972E+00      0.3663598847E+00
          0                 3           1             3    2     2      -0.3116760460E-03       3    2    2        -0.8758374968E-02      0.2154743859E-01

    ------------------------------------------------
       NWT REQUIRED            3 OUTER ITERATIONS 
       AND A TOTAL OF          5 INNER ITERATIONS.
    ------------------------------------------------

 NO OUTPUT CONTROL FOR STRESS PERIOD   12   TIME STEP   92
 ..........LAKE  1 IS DRY..........
 
 SOLVING FOR HEAD 
                                                   Max.-Head-Change                         Max.-Flux-Residual
  Residual-Control   Outer-Iter.   Inner-Iter.     Column Row Layer    Maximum-Head-Change  Column Row Layer    Maximum-Flux-Residual          L2-NORM 
          0                 1           2             3    2     2      -0.5570720789E-01       3    2    2        -0.1453157872E+01      0.3756082157E+01
          0                 2           2             3    2     2       0.5367091123E-02       3    2    2         0.1453135075E+00      0.3645247617E+00
          0                 3           1             3    2     2      -0.3102687749E-03       3    2    2        -0.8718829449E-02      0.2143820004E-01

    ------------------------------------------------
       NWT REQUIRED            3 OUTER ITERATIONS 
       AND A TOTAL OF          5 INNER ITERATIONS.
    ------------------------------------------------

 NO OUTPUT CONTROL FOR STRESS PERIOD   12   TIME STEP   93
 ..........LAKE  1 IS DRY..........
 
 SOLVING FOR HEAD 
                                                   Max.-Head-Change                         Max.-Flux-Residual
  Residual-Control   Outer-Iter.   Inner-Iter.     Column Row Layer    Maximum-Head-Change  Column Row Layer    Maximum-Flux-Residual          L2-NORM 
          0                 1           2             3    2     2      -0.5545575965E-01       3    2    2        -0.1446596925E+01      0.3737686913E+01
          0                 2           2             3    2     2       0.5342863410E-02       3    2    2         0.1446574292E+00      0.3626970113E+00
          0                 3           1             3    2     2      -0.3088680079E-03       3    2    2        -0.8679464596E-02      0.2132977564E-01

    ------------------------------------------------
       NWT REQUIRED            3 OUTER ITERATIONS 
       AND A TOTAL OF          5 INNER ITERATIONS.
    ------------------------------------------------

 NO OUTPUT CONTROL FOR STRESS PERIOD   12   TIME STEP   94
 ..........LAKE  1 IS DRY..........
 
 SOLVING FOR HEAD 
                                                   Max.-Head-Change                         Max.-Flux-Residual
  Residual-Control   Outer-Iter.   Inner-Iter.     Column Row Layer    Maximum-Head-Change  Column Row Layer    Maximum-Flux-Residual          L2-NORM 
          0                 1           2             3    2     2      -0.5520551732E-01       3    2    2        -0.1440066652E+01      0.3719459900E+01
          0                 2           2             3    2     2       0.5318751916E-02       3    2    2         0.1440044184E+00      0.3608859201E+00
          0                 3           1             3    2     2      -0.3074738897E-03       3    2    2        -0.8640283816E-02      0.2122208987E-01

    ------------------------------------------------
       NWT REQUIRED            3 OUTER ITERATIONS 
       AND A TOTAL OF          5 INNER ITERATIONS.
    ------------------------------------------------

 NO OUTPUT CONTROL FOR STRESS PERIOD   12   TIME STEP   95
 ..........LAKE  1 IS DRY..........
 
 SOLVING FOR HEAD 
                                                   Max.-Head-Change                         Max.-Flux-Residual
  Residual-Control   Outer-Iter.   Inner-Iter.     Column Row Layer    Maximum-Head-Change  Column Row Layer    Maximum-Flux-Residual          L2-NORM 
          0                 1           2             3    2     2      -0.5495650244E-01       3    2    2        -0.1433567668E+01      0.3701089100E+01
          0                 2           2             3    2     2       0.5294758802E-02       3    2    2         0.1433545367E+00      0.3590930846E+00
          0                 3           1             3    2     2      -0.3060867452E-03       3    2    2        -0.8601290765E-02      0.2111673508E-01

    ------------------------------------------------
       NWT REQUIRED            3 OUTER ITERATIONS 
       AND A TOTAL OF          5 INNER ITERATIONS.
    ------------------------------------------------

 NO OUTPUT CONTROL FOR STRESS PERIOD   12   TIME STEP   96
 ..........LAKE  1 IS DRY..........
 
 SOLVING FOR HEAD 
                                                   Max.-Head-Change                         Max.-Flux-Residual
  Residual-Control   Outer-Iter.   Inner-Iter.     Column Row Layer    Maximum-Head-Change  Column Row Layer    Maximum-Flux-Residual          L2-NORM 
          0                 1           2             3    2     2      -0.5470884308E-01       3    2    2        -0.1427103592E+01      0.3683154825E+01
          0                 2           2             3    2     2       0.5270896134E-02       3    2    2         0.1427081457E+00      0.3573856288E+00
          0                 3           1             3    2     2      -0.3047070133E-03       3    2    2        -0.8562507165E-02      0.2101282505E-01

    ------------------------------------------------
       NWT REQUIRED            3 OUTER ITERATIONS 
       AND A TOTAL OF          5 INNER ITERATIONS.
    ------------------------------------------------

 NO OUTPUT CONTROL FOR STRESS PERIOD   12   TIME STEP   97
 ..........LAKE  1 IS DRY..........
 
 SOLVING FOR HEAD 
                                                   Max.-Head-Change                         Max.-Flux-Residual
  Residual-Control   Outer-Iter.   Inner-Iter.     Column Row Layer    Maximum-Head-Change  Column Row Layer    Maximum-Flux-Residual          L2-NORM 
          0                 1           2             3    2     2      -0.5446232619E-01       3    2    2        -0.1420668580E+01      0.3665877774E+01
          0                 2           2             3    2     2       0.5247143574E-02       3    2    2         0.1420646614E+00      0.3557217252E+00
          0                 3           1             3    2     2      -0.3033336906E-03       3    2    2        -0.8523897953E-02      0.2092131310E-01

    ------------------------------------------------
       NWT REQUIRED            3 OUTER ITERATIONS 
       AND A TOTAL OF          5 INNER ITERATIONS.
    ------------------------------------------------

 NO OUTPUT CONTROL FOR STRESS PERIOD   12   TIME STEP   98
 ..........LAKE  1 IS DRY..........
 
 SOLVING FOR HEAD 
                                                   Max.-Head-Change                         Max.-Flux-Residual
  Residual-Control   Outer-Iter.   Inner-Iter.     Column Row Layer    Maximum-Head-Change  Column Row Layer    Maximum-Flux-Residual          L2-NORM 
          0                 1           2             3    2     2      -0.5421720063E-01       3    2    2        -0.1414269323E+01      0.3648354856E+01
          0                 2           2             3    2     2       0.5223524939E-02       3    2    2         0.1414247526E+00      0.3540490737E+00
          0                 3           1             3    2     2      -0.3019681047E-03       3    2    2        -0.8485503275E-02      0.2085085480E-01

    ------------------------------------------------
       NWT REQUIRED            3 OUTER ITERATIONS 
       AND A TOTAL OF          5 INNER ITERATIONS.
    ------------------------------------------------

 NO OUTPUT CONTROL FOR STRESS PERIOD   12   TIME STEP   99
 ..........LAKE  1 IS DRY..........
 
 SOLVING FOR HEAD 
                                                   Max.-Head-Change                         Max.-Flux-Residual
  Residual-Control   Outer-Iter.   Inner-Iter.     Column Row Layer    Maximum-Head-Change  Column Row Layer    Maximum-Flux-Residual          L2-NORM 
          0                 1           2             3    2     2      -0.5397336047E-01       3    2    2        -0.1407903118E+01      0.3631100155E+01
          0                 2           2             3    2     2       0.5200030148E-02       3    2    2         0.1407881492E+00      0.3523510169E+00
          0                 3           1             3    2     2      -0.3006096898E-03       3    2    2        -0.8447306925E-02      0.2074993609E-01

    ------------------------------------------------
       NWT REQUIRED            3 OUTER ITERATIONS 
       AND A TOTAL OF          5 INNER ITERATIONS.
    ------------------------------------------------

 NO OUTPUT CONTROL FOR STRESS PERIOD   12   TIME STEP  100
 ..........LAKE  1 IS DRY..........
 
 SOLVING FOR HEAD 
                                                   Max.-Head-Change                         Max.-Flux-Residual
  Residual-Control   Outer-Iter.   Inner-Iter.     Column Row Layer    Maximum-Head-Change  Column Row Layer    Maximum-Flux-Residual          L2-NORM 
          0                 1           2             3    2     2      -0.5373081609E-01       3    2    2        -0.1401570269E+01      0.3614136560E+01
          0                 2           2             3    2     2       0.5176660124E-02       3    2    2         0.1401548812E+00      0.3507550554E+00
          0                 3           1             3    2     2      -0.2992583938E-03       3    2    2        -0.8409310699E-02      0.2065206640E-01

    ------------------------------------------------
       NWT REQUIRED            3 OUTER ITERATIONS 
       AND A TOTAL OF          5 INNER ITERATIONS.
    ------------------------------------------------

 NO OUTPUT CONTROL FOR STRESS PERIOD   12   TIME STEP  101
 ..........LAKE  1 IS DRY..........
 
 SOLVING FOR HEAD 
                                                   Max.-Head-Change                         Max.-Flux-Residual
  Residual-Control   Outer-Iter.   Inner-Iter.     Column Row Layer    Maximum-Head-Change  Column Row Layer    Maximum-Flux-Residual          L2-NORM 
          0                 1           2             3    2     2      -0.5348957635E-01       3    2    2        -0.1395271042E+01      0.3597556065E+01
          0                 2           2             3    2     2       0.5153415782E-02       3    2    2         0.1395249757E+00      0.3491142800E+00
          0                 3           1             3    2     2      -0.2979144533E-03       3    2    2        -0.8371516220E-02      0.2055358518E-01

    ------------------------------------------------
       NWT REQUIRED            3 OUTER ITERATIONS 
       AND A TOTAL OF          5 INNER ITERATIONS.
    ------------------------------------------------

 NO OUTPUT CONTROL FOR STRESS PERIOD   12   TIME STEP  102
 ..........LAKE  1 IS DRY..........
 
 SOLVING FOR HEAD 
                                                   Max.-Head-Change                         Max.-Flux-Residual
  Residual-Control   Outer-Iter.   Inner-Iter.     Column Row Layer    Maximum-Head-Change  Column Row Layer    Maximum-Flux-Residual          L2-NORM 
          0                 1           2             3    2     2      -0.5324965338E-01       3    2    2        -0.1389005673E+01      0.3581217322E+01
          0                 2           2             3    2     2       0.5130298348E-02       3    2    2         0.1388984559E+00      0.3474905079E+00
          0                 3           1             3    2     2      -0.2965778532E-03       3    2    2        -0.8333924873E-02      0.2045681967E-01

    ------------------------------------------------
       NWT REQUIRED            3 OUTER ITERATIONS 
       AND A TOTAL OF          5 INNER ITERATIONS.
    ------------------------------------------------

 NO OUTPUT CONTROL FOR STRESS PERIOD   12   TIME STEP  103
 ..........LAKE  1 IS DRY..........
 
 SOLVING FOR HEAD 
                                                   Max.-Head-Change                         Max.-Flux-Residual
  Residual-Control   Outer-Iter.   Inner-Iter.     Column Row Layer    Maximum-Head-Change  Column Row Layer    Maximum-Flux-Residual          L2-NORM 
          0                 1           2             3    2     2      -0.5301116836E-01       3    2    2        -0.1382777521E+01      0.3564977332E+01
          0                 2           2             3    2     2       0.5107319396E-02       3    2    2         0.1382756577E+00      0.3458886874E+00
          0                 3           1             3    2     2      -0.2952492350E-03       3    2    2        -0.8296556837E-02      0.2036052782E-01

    ------------------------------------------------
       NWT REQUIRED            3 OUTER ITERATIONS 
       AND A TOTAL OF          5 INNER ITERATIONS.
    ------------------------------------------------

 NO OUTPUT CONTROL FOR STRESS PERIOD   12   TIME STEP  104
 ..........LAKE  1 IS DRY..........
 
 SOLVING FOR HEAD 
                                                   Max.-Head-Change                         Max.-Flux-Residual
  Residual-Control   Outer-Iter.   Inner-Iter.     Column Row Layer    Maximum-Head-Change  Column Row Layer    Maximum-Flux-Residual          L2-NORM 
          0                 1           2             3    2     2      -0.5277401100E-01       3    2    2        -0.1376583632E+01      0.3549025698E+01
          0                 2           2             3    2     2       0.5084468291E-02       3    2    2         0.1376562859E+00      0.3443012301E+00
          0                 3           1             3    2     2      -0.2939280101E-03       3    2    2        -0.8259394385E-02      0.2026529711E-01

    ------------------------------------------------
       NWT REQUIRED            3 OUTER ITERATIONS 
       AND A TOTAL OF          5 INNER ITERATIONS.
    ------------------------------------------------

 NO OUTPUT CONTROL FOR STRESS PERIOD   12   TIME STEP  105
 ..........LAKE  1 IS DRY..........
 
 SOLVING FOR HEAD 
                                                   Max.-Head-Change                         Max.-Flux-Residual
  Residual-Control   Outer-Iter.   Inner-Iter.     Column Row Layer    Maximum-Head-Change  Column Row Layer    Maximum-Flux-Residual          L2-NORM 
          0                 1           2             3    2     2      -0.5253818291E-01       3    2    2        -0.1370424196E+01      0.3532931042E+01
          0                 2           2             3    2     2       0.5061745258E-02       3    2    2         0.1370403594E+00      0.3427135028E+00
          0                 3           1             3    2     2      -0.2926141563E-03       3    2    2        -0.8222438633E-02      0.2017031862E-01

    ------------------------------------------------
       NWT REQUIRED            3 OUTER ITERATIONS 
       AND A TOTAL OF          5 INNER ITERATIONS.
    ------------------------------------------------

 NO OUTPUT CONTROL FOR STRESS PERIOD   12   TIME STEP  106
 ..........LAKE  1 IS DRY..........
 
 SOLVING FOR HEAD 
                                                   Max.-Head-Change                         Max.-Flux-Residual
  Residual-Control   Outer-Iter.   Inner-Iter.     Column Row Layer    Maximum-Head-Change  Column Row Layer    Maximum-Flux-Residual          L2-NORM 
          0                 1           2             3    2     2      -0.5230369357E-01       3    2    2        -0.1364299252E+01      0.3517033881E+01
          0                 2           2             3    2     2       0.5039151157E-02       3    2    2         0.1364278821E+00      0.3411302201E+00
          0                 3           1             3    2     2      -0.2913077593E-03       3    2    2        -0.8185689852E-02      0.2007555876E-01

    ------------------------------------------------
       NWT REQUIRED            3 OUTER ITERATIONS 
       AND A TOTAL OF          5 INNER ITERATIONS.
    ------------------------------------------------

 NO OUTPUT CONTROL FOR STRESS PERIOD   12   TIME STEP  107
 ..........LAKE  1 IS DRY..........
 
 SOLVING FOR HEAD 
                                                   Max.-Head-Change                         Max.-Flux-Residual
  Residual-Control   Outer-Iter.   Inner-Iter.     Column Row Layer    Maximum-Head-Change  Column Row Layer    Maximum-Flux-Residual          L2-NORM 
          0                 1           2             3    2     2      -0.5207065754E-01       3    2    2        -0.1358212093E+01      0.3501360874E+01
          0                 2           2             3    2     2       0.5016697115E-02       3    2    2         0.1358191833E+00      0.3395661948E+00
          0                 3           1             3    2     2      -0.2900094960E-03       3    2    2        -0.8149167784E-02      0.1998181470E-01

    ------------------------------------------------
       NWT REQUIRED            3 OUTER ITERATIONS 
       AND A TOTAL OF          5 INNER ITERATIONS.
    ------------------------------------------------

 NO OUTPUT CONTROL FOR STRESS PERIOD   12   TIME STEP  108
 ..........LAKE  1 IS DRY..........
 
 SOLVING FOR HEAD 
                                                   Max.-Head-Change                         Max.-Flux-Residual
  Residual-Control   Outer-Iter.   Inner-Iter.     Column Row Layer    Maximum-Head-Change  Column Row Layer    Maximum-Flux-Residual          L2-NORM 
          0                 1           2             3    2     2      -0.5183896255E-01       3    2    2        -0.1352159600E+01      0.3486118999E+01
          0                 2           2             3    2     2       0.4994450706E-02       3    2    2         0.1352139510E+00      0.3381026877E+00
          0                 3           1             3    2     2      -0.2887987677E-03       3    2    2        -0.8112853642E-02      0.1999479877E-01

    ------------------------------------------------
       NWT REQUIRED            3 OUTER ITERATIONS 
       AND A TOTAL OF          5 INNER ITERATIONS.
    ------------------------------------------------

 NO OUTPUT CONTROL FOR STRESS PERIOD   12   TIME STEP  109
 ..........LAKE  1 IS DRY..........
 
 SOLVING FOR HEAD 
                                                   Max.-Head-Change                         Max.-Flux-Residual
  Residual-Control   Outer-Iter.   Inner-Iter.     Column Row Layer    Maximum-Head-Change  Column Row Layer    Maximum-Flux-Residual          L2-NORM 
          0                 1           2             3    2     2      -0.5160861221E-01       3    2    2        -0.1346141951E+01      0.3470719229E+01
          0                 2           2             3    2     2       0.4973120958E-02       3    2    2         0.1346122031E+00      0.3371133897E+00
          0                 3           1             3    2     2      -0.2875779710E-03       3    2    2        -0.8076748019E-02      0.1994260616E-01

    ------------------------------------------------
       NWT REQUIRED            3 OUTER ITERATIONS 
       AND A TOTAL OF          5 INNER ITERATIONS.
    ------------------------------------------------

 NO OUTPUT CONTROL FOR STRESS PERIOD   12   TIME STEP  110
 ..........LAKE  1 IS DRY..........
 
 SOLVING FOR HEAD 
                                                   Max.-Head-Change                         Max.-Flux-Residual
  Residual-Control   Outer-Iter.   Inner-Iter.     Column Row Layer    Maximum-Head-Change  Column Row Layer    Maximum-Flux-Residual          L2-NORM 
          0                 1           2             3    2     2      -0.5137787931E-01       3    2    2        -0.1340136229E+01      0.3454967706E+01
          0                 2           2             3    2     2       0.4950895139E-02       3    2    2         0.1340116419E+00      0.3361072728E+00
          0                 3           1             3    2     2      -0.2862927289E-03       3    2    2        -0.8040714257E-02      0.1988233790E-01

    ------------------------------------------------
       NWT REQUIRED            3 OUTER ITERATIONS 
       AND A TOTAL OF          5 INNER ITERATIONS.
    ------------------------------------------------

 NO OUTPUT CONTROL FOR STRESS PERIOD   12   TIME STEP  111
 ..........LAKE  1 IS DRY..........
 
 SOLVING FOR HEAD 
                                                   Max.-Head-Change                         Max.-Flux-Residual
  Residual-Control   Outer-Iter.   Inner-Iter.     Column Row Layer    Maximum-Head-Change  Column Row Layer    Maximum-Flux-Residual          L2-NORM 
          0                 1           2             3    2     2      -0.5114780397E-01       3    2    2        -0.1334146368E+01      0.3439498754E+01
          0                 2           2             3    2     2       0.4928724590E-02       3    2    2         0.1334126672E+00      0.3345587337E+00
          0                 3           1             3    2     2      -0.2850106828E-03       3    2    2        -0.8004775679E-02      0.1978922884E-01

    ------------------------------------------------
       NWT REQUIRED            3 OUTER ITERATIONS 
       AND A TOTAL OF          5 INNER ITERATIONS.
    ------------------------------------------------

 NO OUTPUT CONTROL FOR STRESS PERIOD   12   TIME STEP  112
 ..........LAKE  1 IS DRY..........
 
 SOLVING FOR HEAD 
                                                   Max.-Head-Change                         Max.-Flux-Residual
  Residual-Control   Outer-Iter.   Inner-Iter.     Column Row Layer    Maximum-Head-Change  Column Row Layer    Maximum-Flux-Residual          L2-NORM 
          0                 1           2             3    2     2      -0.5091832910E-01       3    2    2        -0.1328170747E+01      0.3424244165E+01
          0                 2           2             3    2     2       0.4906611916E-02       3    2    2         0.1328151168E+00      0.3330283035E+00
          0                 3           1             3    2     2      -0.2837319835E-03       3    2    2        -0.7968922561E-02      0.1969728618E-01

    ------------------------------------------------
       NWT REQUIRED            3 OUTER ITERATIONS 
       AND A TOTAL OF          5 INNER ITERATIONS.
    ------------------------------------------------

 NO OUTPUT CONTROL FOR STRESS PERIOD   12   TIME STEP  113
 ..........LAKE  1 IS DRY..........
 
 SOLVING FOR HEAD 
                                                   Max.-Head-Change                         Max.-Flux-Residual
  Residual-Control   Outer-Iter.   Inner-Iter.     Column Row Layer    Maximum-Head-Change  Column Row Layer    Maximum-Flux-Residual          L2-NORM 
          0                 1           2             3    2     2      -0.5068949691E-01       3    2    2        -0.1322210710E+01      0.3409195419E+01
          0                 2           2             3    2     2       0.4884561181E-02       3    2    2         0.1322191251E+00      0.3315162455E+00
          0                 3           1             3    2     2      -0.2824568653E-03       3    2    2        -0.7933162952E-02      0.1960598152E-01

    ------------------------------------------------
       NWT REQUIRED            3 OUTER ITERATIONS 
       AND A TOTAL OF          5 INNER ITERATIONS.
    ------------------------------------------------

 NO OUTPUT CONTROL FOR STRESS PERIOD   12   TIME STEP  114
 ..........LAKE  1 IS DRY..........
 
 SOLVING FOR HEAD 
                                                   Max.-Head-Change                         Max.-Flux-Residual
  Residual-Control   Outer-Iter.   Inner-Iter.     Column Row Layer    Maximum-Head-Change  Column Row Layer    Maximum-Flux-Residual          L2-NORM 
          0                 1           2             3    2     2      -0.5046147328E-01       3    2    2        -0.1316270391E+01      0.3394326376E+01
          0                 2           2             3    2     2       0.4862588370E-02       3    2    2         0.1316251055E+00      0.3300182425E+00
          0                 3           1             3    2     2      -0.2811862530E-03       3    2    2        -0.7897521676E-02      0.1951551792E-01

    ------------------------------------------------
       NWT REQUIRED            3 OUTER ITERATIONS 
       AND A TOTAL OF          5 INNER ITERATIONS.
    ------------------------------------------------

 NO OUTPUT CONTROL FOR STRESS PERIOD   12   TIME STEP  115
 ..........LAKE  1 IS DRY..........
 
 SOLVING FOR HEAD 
                                                   Max.-Head-Change                         Max.-Flux-Residual
  Residual-Control   Outer-Iter.   Inner-Iter.     Column Row Layer    Maximum-Head-Change  Column Row Layer    Maximum-Flux-Residual          L2-NORM 
          0                 1           2             3    2     2      -0.5023406504E-01       3    2    2        -0.1310344975E+01      0.3379627777E+01
          0                 2           2             3    2     2       0.4840674869E-02       3    2    2         0.1310325765E+00      0.3285470448E+00
          0                 3           1             3    2     2      -0.2799190706E-03       3    2    2        -0.7861969827E-02      0.1942630530E-01

    ------------------------------------------------
       NWT REQUIRED            3 OUTER ITERATIONS 
       AND A TOTAL OF          5 INNER ITERATIONS.
    ------------------------------------------------

 NO OUTPUT CONTROL FOR STRESS PERIOD   12   TIME STEP  116
 ..........LAKE  1 IS DRY..........
 
 SOLVING FOR HEAD 
                                                   Max.-Head-Change                         Max.-Flux-Residual
  Residual-Control   Outer-Iter.   Inner-Iter.     Column Row Layer    Maximum-Head-Change  Column Row Layer    Maximum-Flux-Residual          L2-NORM 
          0                 1           2             3    2     2      -0.5000766027E-01       3    2    2        -0.1304444646E+01      0.3365165022E+01
          0                 2           2             3    2     2       0.4818858073E-02       3    2    2         0.1304425564E+00      0.3270854995E+00
          0                 3           1             3    2     2      -0.2786574803E-03       3    2    2        -0.7826568518E-02      0.1933770778E-01

    ------------------------------------------------
       NWT REQUIRED            3 OUTER ITERATIONS 
       AND A TOTAL OF          5 INNER ITERATIONS.
    ------------------------------------------------

 NO OUTPUT CONTROL FOR STRESS PERIOD   12   TIME STEP  117
 ..........LAKE  1 IS DRY..........
 
 SOLVING FOR HEAD 
                                                   Max.-Head-Change                         Max.-Flux-Residual
  Residual-Control   Outer-Iter.   Inner-Iter.     Column Row Layer    Maximum-Head-Change  Column Row Layer    Maximum-Flux-Residual          L2-NORM 
          0                 1           2             3    2     2      -0.4978194569E-01       3    2    2        -0.1298561239E+01      0.3350737934E+01
          0                 2           2             3    2     2       0.4797107793E-02       3    2    2         0.1298542288E+00      0.3256338708E+00
          0                 3           1             3    2     2      -0.2773997356E-03       3    2    2        -0.7791268750E-02      0.1924989692E-01

    ------------------------------------------------
       NWT REQUIRED            3 OUTER ITERATIONS 
       AND A TOTAL OF          5 INNER ITERATIONS.
    ------------------------------------------------

 NO OUTPUT CONTROL FOR STRESS PERIOD   12   TIME STEP  118
 ..........LAKE  1 IS DRY..........
 
 SOLVING FOR HEAD 
                                                   Max.-Head-Change                         Max.-Flux-Residual
  Residual-Control   Outer-Iter.   Inner-Iter.     Column Row Layer    Maximum-Head-Change  Column Row Layer    Maximum-Flux-Residual          L2-NORM 
          0                 1           2             3    2     2      -0.4955719143E-01       3    2    2        -0.1292701820E+01      0.3336823271E+01
          0                 2           2             3    2     2       0.4775450059E-02       3    2    2         0.1292683001E+00      0.3242165789E+00
          0                 3           1             3    2     2      -0.2761473428E-03       3    2    2        -0.7756112921E-02      0.1916313084E-01

    ------------------------------------------------
       NWT REQUIRED            3 OUTER ITERATIONS 
       AND A TOTAL OF          5 INNER ITERATIONS.
    ------------------------------------------------

 NO OUTPUT CONTROL FOR STRESS PERIOD   12   TIME STEP  119
 ..........LAKE  1 IS DRY..........
 
 SOLVING FOR HEAD 
                                                   Max.-Head-Change                         Max.-Flux-Residual
  Residual-Control   Outer-Iter.   Inner-Iter.     Column Row Layer    Maximum-Head-Change  Column Row Layer    Maximum-Flux-Residual          L2-NORM 
          0                 1           2             3    2     2      -0.4933331145E-01       3    2    2        -0.1286864282E+01      0.3322815104E+01
          0                 2           2             3    2     2       0.4753876580E-02       3    2    2         0.1286845598E+00      0.3228024729E+00
          0                 3           1             3    2     2      -0.2748998219E-03       3    2    2        -0.7721088392E-02      0.1907711037E-01

    ------------------------------------------------
       NWT REQUIRED            3 OUTER ITERATIONS 
       AND A TOTAL OF          5 INNER ITERATIONS.
    ------------------------------------------------

 NO OUTPUT CONTROL FOR STRESS PERIOD   12   TIME STEP  120



 STREAM LISTING     PERIOD     12   STEP      120

 LAYER ROW COL. STREAM  RCH.  FLOW INTO     FLOW TO   FLOW OUT OF   OVRLND.     DIRECT     STREAM       STREAM     STREAM     STREAM   STREAMBED  STREAMBED
                SEG.NO.  NO.  STRM. RCH.    AQUIFER    STRM. RCH.    RUNOFF     PRECIP       ET          HEAD       DEPTH      WIDTH   CONDCTNC.   GRADIENT

   2    1    1     1     1    2.5000E+00  6.9073E-01   1.8093E+00  0.000E+00  0.000E+00  0.000E+00  1.09361E+03  5.644E-01  4.306E+00  1.938E-01  1.188E+00
   2    2    2     1     2    1.8093E+00  9.1724E-01   8.9203E-01  0.000E+00  0.000E+00  0.000E+00  1.08852E+03  4.592E-01  3.788E+00  2.652E-01  1.153E+00
   2    3    3     1     3    8.9203E-01  6.1141E-01   2.8062E-01  0.000E+00  0.000E+00  0.000E+00  1.08270E+03  2.785E-01  3.108E+00  1.865E-01  1.093E+00
   2    3    4     1     4    2.8062E-01  1.9077E-01   8.9854E-02  0.000E+00  0.000E+00  0.000E+00  1.07750E+03  9.262E-02  1.111E+00  6.168E-02  1.031E+00
   2    4    5     2     1    0.0000E+00  0.0000E+00   0.0000E+00  0.000E+00  0.000E+00  0.000E+00  1.07193E+03  0.000E+00  1.200E+01  7.800E-01  1.000E+00
   2    5    6     2     2    0.0000E+00  0.0000E+00   0.0000E+00  0.000E+00  0.000E+00  0.000E+00  1.06651E+03  0.000E+00  1.200E+01  6.000E-01  1.000E+00
   2    6    6     2     3    0.0000E+00  0.0000E+00   0.0000E+00  0.000E+00  0.000E+00  0.000E+00  1.06179E+03  0.000E+00  1.200E+01  6.000E-01  1.000E+00
   2    7    6     2     4    0.0000E+00  0.0000E+00   0.0000E+00  0.000E+00  0.000E+00  0.000E+00  1.05708E+03  0.000E+00  1.200E+01  6.000E-01  1.000E+00
   2    8    6     2     5    0.0000E+00  0.0000E+00   0.0000E+00  0.000E+00  0.000E+00  0.000E+00  1.05236E+03  0.000E+00  1.200E+01  6.000E-01  1.000E+00
   2    3    5     3     1    8.9854E-02  8.9854E-02   0.0000E+00  0.000E+00  0.000E+00  0.000E+00  1.07555E+03  0.000E+00  9.636E+00  7.227E-01  1.955E+00
   2    3    6     3     2    0.0000E+00  0.0000E+00   0.0000E+00  0.000E+00  0.000E+00  0.000E+00  1.07091E+03  0.000E+00  8.909E+00  6.682E-01  1.000E+00
   2    3    7     3     3    0.0000E+00  0.0000E+00   0.0000E+00  0.000E+00  0.000E+00  0.000E+00  1.06832E+03  0.000E+00  8.218E+00  5.547E-01  1.000E+00
   2    4    8     3     4    0.0000E+00  0.0000E+00   0.0000E+00  0.000E+00  0.000E+00  0.000E+00  1.06545E+03  0.000E+00  7.455E+00  6.709E-01  1.000E+00
   2    5    8     3     5    0.0000E+00  0.0000E+00   0.0000E+00  0.000E+00  0.000E+00  0.000E+00  1.06245E+03  0.000E+00  6.655E+00  4.991E-01  1.000E+00
   2    6    8     3     6    0.0000E+00  0.0000E+00   0.0000E+00  0.000E+00  0.000E+00  0.000E+00  1.06055E+03  0.000E+00  6.145E+00  1.844E-01  1.000E+00
   2    5   10     4     1    1.0000E+01  9.0525E-01   9.0947E+00  0.000E+00  0.000E+00  0.000E+00  1.07835E+03  6.210E-01  1.000E+01  2.500E-01  1.207E+00
   2    5    9     4     2    9.0947E+00  1.7835E+00   7.3113E+00  0.000E+00  0.000E+00  0.000E+00  1.07148E+03  5.670E-01  1.000E+01  5.000E-01  1.189E+00
   2    6    8     4     3    7.3113E+00  1.2257E+00   6.0855E+00  0.000E+00  0.000E+00  0.000E+00  1.06368E+03  5.021E-01  1.000E+01  3.500E-01  1.167E+00
   2    6    8     5     1    6.0855E+00  1.4716E+00   4.6139E+00  0.000E+00  0.000E+00  0.000E+00  1.05854E+03  5.396E-01  1.039E+01  4.158E-01  1.180E+00
   2    7    7     5     2    4.6139E+00  1.4897E+00   3.1242E+00  0.000E+00  0.000E+00  0.000E+00  1.05398E+03  4.817E-01  8.557E+00  4.279E-01  1.161E+00
   2    8    7     5     3    3.1242E+00  8.2855E-01   2.2957E+00  0.000E+00  0.000E+00  0.000E+00  1.04968E+03  4.253E-01  6.911E+00  2.419E-01  1.142E+00
   2    8    6     5     4    2.2957E+00  4.9455E-01   1.8011E+00  0.000E+00  0.000E+00  0.000E+00  1.04664E+03  3.856E-01  5.843E+00  1.461E-01  1.129E+00
   2    9    6     6     1    1.8011E+00  1.8011E+00   0.0000E+00  0.000E+00  0.000E+00  0.000E+00  1.04278E+03  5.669E-02  1.200E+01  6.000E-01  1.019E+00
   2   10    7     6     2    0.0000E+00  0.0000E+00   0.0000E+00  0.000E+00  0.000E+00  0.000E+00  1.03818E+03  0.000E+00  1.200E+01  6.000E-01  1.000E+00
   2   11    7     6     3    0.0000E+00  0.0000E+00   0.0000E+00  0.000E+00  0.000E+00  0.000E+00  1.03364E+03  0.000E+00  1.200E+01  6.000E-01  9.264E-01
   2   12    7     6     4    0.0000E+00  0.0000E+00   0.0000E+00  0.000E+00  0.000E+00  0.000E+00  1.02909E+03  0.000E+00  1.200E+01  6.000E-01  1.630E-01
   2   13    7     6     5    0.0000E+00 -7.6554E-01   7.6554E-01  0.000E+00  0.000E+00  0.000E+00  1.02601E+03  9.948E-02  1.200E+01  2.400E-01 -1.063E+00
   2   14    9     7     1    1.5000E+02  2.9617E+00   1.4704E+02  0.000E+00  0.000E+00  0.000E+00  1.03986E+03  2.283E+00  5.528E+01  5.591E+00  1.766E-01
   2   13    8     7     2    1.4704E+02  3.8633E+00   1.4318E+02  0.000E+00  0.000E+00  0.000E+00  1.03477E+03  2.265E+00  5.519E+01  6.140E+00  2.097E-01
   2   13    7     7     3    1.4318E+02  2.6126E+00   1.4056E+02  0.000E+00  0.000E+00  0.000E+00  1.02967E+03  2.248E+00  5.511E+01  5.573E+00  1.563E-01
   2   13    6     8     1    1.4133E+02  3.7174E-01   1.4098E+02  2.132E-02  0.000E+00  0.000E+00  1.02463E+03  2.753E+00  3.992E+01  4.068E+00  3.046E-02
   2   13    5     8     2    1.4098E+02 -3.0375E+00   1.4404E+02  2.132E-02  0.000E+00  0.000E+00  1.01839E+03  2.763E+00  4.007E+01  4.083E+00 -2.480E-01
   2   13    4     8     3    1.4404E+02 -5.8835E+00   1.4994E+02  2.132E-02  0.000E+00  0.000E+00  1.01217E+03  2.795E+00  4.053E+01  4.131E+00 -4.748E-01
   2   13    3     8     4    1.4994E+02 -6.2189E+00   1.5618E+02  2.132E-02  0.000E+00  0.000E+00  1.00596E+03  2.838E+00  4.115E+01  4.194E+00 -4.943E-01
   2   13    2     8     5    1.5618E+02 -3.5305E+00   1.5973E+02  2.132E-02  0.000E+00  0.000E+00  9.99747E+02  2.872E+00  4.164E+01  4.244E+00 -2.773E-01
   2   13    1     8     6    1.5973E+02 -2.1600E+00   1.6191E+02  1.279E-02  0.000E+00  0.000E+00  9.94766E+02  2.891E+00  4.192E+01  2.563E+00 -2.809E-01
   2    4    5     9     1    0.0000E+00  0.0000E+00   0.0000E+00  0.000E+00  0.000E+00  0.000E+00  1.06000E+03  0.000E+00  2.000E+01  2.000E-03  1.000E+00
   2    4    5    10     1    0.0000E+00  0.0000E+00   0.0000E+00  0.000E+00  0.000E+00  0.000E+00  1.08000E+03  0.000E+00  2.000E+01  2.000E-03  1.000E+00



 ..........LAKE  1 IS DRY..........


UNSATURATED ZONE PACKAGE VOLUMETRIC BUDGET FOR  TIME STEP   120 STRESS PERIOD   12
  ------------------------------------------------------------------------------



     CUMULATIVE VOLUMES      L**3       RATES FOR THIS TIME STEP      L**3/T
     ------------------                 ------------------------

           IN:                                      IN:
           ---                                      ---
        INFILTRATION =  1807433747.9957          INFILTRATION =           8.4453

          OUT:                                     OUT:
          ----                                     ----
              UZF ET =  1729556929.1120                UZF ET =           8.3352
        UZF RECHARGE =   764196432.2596          UZF RECHARGE =           0.9317

            IN - OUT =  -686319613.3759              IN - OUT =          -0.8216

          STORAGE:                                 STORAGE:
          --------                                 --------
      STORAGE CHANGE =  -686331688.7259        STORAGE CHANGE =          -0.8216

 PERCENT DISCREPANCY IS DIFFERENCE BETWEEN IN-OUT MINUS CHANGE IN STORAGE
 DIVIDED BY THE AVERAGE OF IN AND OUT TIMES 100

 PERCENT DISCREPANCY =           0.00     PERCENT DISCREPANCY =          -0.00






1
  VOLUMETRIC BUDGET FOR ENTIRE MODEL AT END OF TIME STEP  120, STRESS PERIOD  12
  ------------------------------------------------------------------------------

     CUMULATIVE VOLUMES      L**3       RATES FOR THIS TIME STEP      L**3/T
     ------------------                 ------------------------

           IN:                                      IN:
           ---                                      ---
             STORAGE =   767028480.0000               STORAGE =          17.6169
       CONSTANT HEAD =           0.0000         CONSTANT HEAD =           0.0000
               WELLS =           0.0000                 WELLS =           0.0000
     HEAD DEP BOUNDS =    10727070.0000       HEAD DEP BOUNDS =           0.2153
      STREAM LEAKAGE =  2574221312.0000        STREAM LEAKAGE =          22.3093
       LAKE  SEEPAGE =           0.0000         LAKE  SEEPAGE =           0.0000
        UZF RECHARGE =   764196288.0000          UZF RECHARGE =           0.9317
               GW ET =           0.0000                 GW ET =           0.0000
     SURFACE LEAKAGE =           0.0000       SURFACE LEAKAGE =           0.0000

            TOTAL IN =  4116173312.0000              TOTAL IN =          41.0732

          OUT:                                     OUT:
          ----                                     ----
             STORAGE =  1921859712.0000               STORAGE =           3.1145
       CONSTANT HEAD =           0.0000         CONSTANT HEAD =           0.0000
               WELLS =   394200000.0000                 WELLS =           0.0000
     HEAD DEP BOUNDS =    14865203.0000       HEAD DEP BOUNDS =           0.2891
      STREAM LEAKAGE =   985943744.0000        STREAM LEAKAGE =          21.5958
       LAKE  SEEPAGE =           0.0000         LAKE  SEEPAGE =           0.0000
        UZF RECHARGE =           0.0000          UZF RECHARGE =           0.0000
               GW ET =   796261888.0000                 GW ET =          15.9574
     SURFACE LEAKAGE =    90288616.0000       SURFACE LEAKAGE =           0.1146

           TOTAL OUT =  4203419136.0000             TOTAL OUT =          41.0716

            IN - OUT =   -87245824.0000              IN - OUT =       1.5678E-03

 PERCENT DISCREPANCY =          -2.10     PERCENT DISCREPANCY =           0.00






         TIME SUMMARY AT END OF TIME STEP  120 IN STRESS PERIOD   12
                    SECONDS     MINUTES      HOURS       DAYS        YEARS
                    -----------------------------------------------------------
   TIME STEP LENGTH 1.75200E+05  2920.0      48.667      2.0278     5.55175E-03
 STRESS PERIOD TIME 2.10240E+07 3.50400E+05  5840.0      243.33     0.66621    
         TOTAL TIME 4.99320E+07 8.32200E+05  13870.      577.92      1.5822    
1

 Run end date and time (yyyy/mm/dd hh:mm:ss): 2017/08/09 16:38:22
 Elapsed run time:  1.388 Seconds

