                                  MODFLOW-NWT-SWR1 
      U.S. GEOLOGICAL SURVEY MODULAR FINITE-DIFFERENCE GROUNDWATER-FLOW MODEL
                            VERSION 1.1.3, 8/01/2017
                    BASED ON MODFLOW-2005 VERSION 1.11.00 08/08/2013

 LIST FILE: .\SFR_LAK_floodplain\output\SFR_LAK_floodplain.lst
                         UNIT    9

 OPENING .\SFR_LAK_floodplain\input\SFR_LAK_floodplain.ba6
 FILE TYPE:BAS6   UNIT   75   STATUS:OLD    
 FORMAT:FORMATTED              ACCESS:SEQUENTIAL          

 OPENING .\SFR_LAK_floodplain\input\SFR_LAK_floodplain.upw
 FILE TYPE:UPW   UNIT    7   STATUS:OLD    
 FORMAT:FORMATTED              ACCESS:SEQUENTIAL          

 OPENING .\SFR_LAK_floodplain\input\SFR_LAK_floodplain.dis
 FILE TYPE:DIS   UNIT    8   STATUS:OLD    
 FORMAT:FORMATTED              ACCESS:SEQUENTIAL          

 OPENING .\SFR_LAK_floodplain\input\SFR_LAK_floodplain.nwt
 FILE TYPE:NWT   UNIT   13   STATUS:OLD    
 FORMAT:FORMATTED              ACCESS:SEQUENTIAL          

 OPENING .\SFR_LAK_floodplain\input\SFR_LAK_floodplain.oc
 FILE TYPE:OC   UNIT   14   STATUS:OLD    
 FORMAT:FORMATTED              ACCESS:SEQUENTIAL          

 OPENING .\SFR_LAK_floodplain\input\SFR_LAK_floodplain.sfr
 FILE TYPE:SFR   UNIT   15   STATUS:OLD    
 FORMAT:FORMATTED              ACCESS:SEQUENTIAL          

 OPENING .\SFR_LAK_floodplain\input\SFR_LAK_floodplain.wel
 FILE TYPE:WEL   UNIT   16   STATUS:OLD    
 FORMAT:FORMATTED              ACCESS:SEQUENTIAL          

 OPENING .\SFR_LAK_floodplain\input\SFR_LAK_floodplain.ghb
 FILE TYPE:GHB   UNIT   17   STATUS:OLD    
 FORMAT:FORMATTED              ACCESS:SEQUENTIAL          

 OPENING .\SFR_LAK_floodplain\input\SFR_LAK_floodplain.uzf
 FILE TYPE:UZF   UNIT   19   STATUS:OLD    
 FORMAT:FORMATTED              ACCESS:SEQUENTIAL          

 OPENING .\SFR_LAK_floodplain\input\SFR_LAK_floodplain.gag
 FILE TYPE:GAGE   UNIT   32   STATUS:OLD    
 FORMAT:FORMATTED              ACCESS:SEQUENTIAL          

 OPENING .\SFR_LAK_floodplain\input\SFR_LAK_floodplain.lak
 FILE TYPE:LAK   UNIT   33   STATUS:OLD    
 FORMAT:FORMATTED              ACCESS:SEQUENTIAL          

 OPENING .\SFR_LAK_floodplain\input\SFR_LAK_floodplain.tab
 FILE TYPE:DATA   UNIT   55   STATUS:UNKNOWN
 FORMAT:FORMATTED              ACCESS:SEQUENTIAL          

 OPENING .\SFR_LAK_floodplain\input\SFR_LAK_floodplain_bath.txt
 FILE TYPE:DATA   UNIT   57   STATUS:UNKNOWN
 FORMAT:FORMATTED              ACCESS:SEQUENTIAL          

 OPENING .\SFR_LAK_floodplain\output\SFR_LAK_floodplainhd.out
 FILE TYPE:DATA   UNIT   58   STATUS:UNKNOWN
 FORMAT:FORMATTED              ACCESS:SEQUENTIAL          

 OPENING .\SFR_LAK_floodplain\output\SFR_LAK_floodplain.uzfot
 FILE TYPE:DATA(BINARY)   UNIT   61   STATUS:UNKNOWN
 FORMAT:BINARY                 ACCESS:SEQUENTIAL          

 OPENING .\SFR_LAK_floodplain\output\SFR_LAK_floodplain.uzf1
 FILE TYPE:DATA   UNIT   65   STATUS:UNKNOWN
 FORMAT:FORMATTED              ACCESS:SEQUENTIAL          

 OPENING .\SFR_LAK_floodplain\output\SFR_LAK_floodplain.uzf2
 FILE TYPE:DATA   UNIT   66   STATUS:UNKNOWN
 FORMAT:FORMATTED              ACCESS:SEQUENTIAL          

 OPENING .\SFR_LAK_floodplain\output\SFR_LAK_floodplain.uzf3
 FILE TYPE:DATA   UNIT   67   STATUS:UNKNOWN
 FORMAT:FORMATTED              ACCESS:SEQUENTIAL          

 OPENING .\SFR_LAK_floodplain\output\SFR_LAK_floodplain.uzf4
 FILE TYPE:DATA   UNIT   68   STATUS:UNKNOWN
 FORMAT:FORMATTED              ACCESS:SEQUENTIAL          

 OPENING .\SFR_LAK_floodplain\output\SFR_LAK_floodplain.flw
 FILE TYPE:DATA   UNIT   81   STATUS:UNKNOWN
 FORMAT:FORMATTED              ACCESS:SEQUENTIAL          

 OPENING .\SFR_LAK_floodplain\output\SFR_LAK_floodplain.sg1
 FILE TYPE:DATA   UNIT   83   STATUS:UNKNOWN
 FORMAT:FORMATTED              ACCESS:SEQUENTIAL          

 OPENING .\SFR_LAK_floodplain\output\SFR_LAK_floodplain.sg2
 FILE TYPE:DATA   UNIT   84   STATUS:UNKNOWN
 FORMAT:FORMATTED              ACCESS:SEQUENTIAL          

 OPENING .\SFR_LAK_floodplain\output\SFR_LAK_floodplain.lg1
 FILE TYPE:DATA   UNIT  801   STATUS:UNKNOWN
 FORMAT:FORMATTED              ACCESS:SEQUENTIAL          

 BAS -- BASIC PACKAGE, VERSION 1.1.3, 8/01/2017 INPUT READ FROM UNIT   75
 
 MODFLOW was compiled using mixed precision
 Precision of REAL variables:           6
 Precision of DOUBLE PRECISION variables:          15

 DISCRETIZATION INPUT DATA READ FROM UNIT    8
 #Test problem 2-- Discretization input
 #Example problem using the UZF1 Package
    2 LAYERS        15 ROWS        10 COLUMNS
   12 STRESS PERIOD(S) IN SIMULATION
 MODEL TIME UNIT IS SECONDS
 MODEL LENGTH UNIT IS FEET
  Confining bed flag for each layer:
   0   0

                     DELR =   5000.00    

                     DELC =   5000.00    



           TOP ELEVATION OF LAYER 1
 READING ON UNIT    8 WITH FORMAT: (10F7.0)            

            1           2           3           4           5           6           7           8           9          10
 ........................................................................................................................
   1    1105.       1105.       0.000       0.000       0.000       0.000       0.000       0.000       0.000       0.000    
   2    1105.       1095.       1105.       0.000       0.000       1100.       1100.       1110.       0.000       0.000    
   3    0.000       1100.       1085.       1080.       1078.       1076.       1073.       1090.       0.000       0.000    
   4    1110.       1100.       1090.       1085.       1074.       1080.       1080.       1070.       1100.       0.000    
   5    1110.       1100.       1085.       1080.       1076.       1074.       1077.       1066.       1075.       1080.    
   6    1105.       1095.       1080.       1077.       1073.       1069.       1070.       1063.       1085.       1095.    
   7    1105.       1090.       1075.       1072.       1070.       1065.       1065.       1069.       1090.       0.000    
   8    0.000       1080.       1070.       1068.       1063.       1060.       1063.       1067.       1090.       0.000    
   9    0.000       1075.       1065.       1062.       1058.       1052.       1055.       1065.       1090.       0.000    
  10    0.000       1070.       1060.       1055.       1046.       1046.       1044.       1060.       1088.       1100.    
  11    0.000       1055.       1050.       1045.       1041.       1042.       1040.       1050.       1075.       0.000    
  12    1027.       1028.       1028.       1032.       1032.       1033.       1032.       1040.       1060.       0.000    
  13    997.0       1004.       1008.       1014.       1020.       1027.       1032.       1038.       1050.       0.000    
  14    0.000       1030.       1040.       1045.       1050.       1050.       1050.       1050.       1044.       0.000    
  15    0.000       0.000       1080.       1080.       1080.       1080.       0.000       0.000       0.000       0.000    



             MODEL LAYER BOTTOM EL. FOR LAYER   1
 READING ON UNIT    8 WITH FORMAT: (10F7.0)            

            1           2           3           4           5           6           7           8           9          10
 ........................................................................................................................
   1    1105.       1105.       0.000       0.000       0.000       0.000       0.000       0.000       0.000       0.000    
   2    1105.       1095.       1105.       0.000       0.000       1100.       1100.       1110.       0.000       0.000    
   3    0.000       1100.       1085.       1080.       1078.       1076.       1073.       1090.       0.000       0.000    
   4    1110.       1100.       1090.       1085.       1074.       1080.       1080.       1070.       1100.       0.000    
   5    1110.       1100.       1085.       1080.       1076.       1074.       1077.       1066.       1075.       1080.    
   6    1105.       1095.       1080.       1077.       1073.       1069.       1070.       1063.       1085.       1095.    
   7    1105.       1090.       1075.       1072.       1070.       1065.       1065.       1069.       1090.       0.000    
   8    0.000       1080.       1070.       1068.       1063.       1060.       1063.       1067.       1090.       0.000    
   9    0.000       1075.       1065.       1062.       1058.       1052.       1055.       1065.       1090.       0.000    
  10    0.000       1070.       1060.       1055.       1046.       1046.       1044.       1060.       1088.       1100.    
  11    0.000       1055.       1050.       1045.       1041.       1042.       1040.       1050.       1075.       0.000    
  12    1027.       1028.       1028.       1032.       1032.       1033.       1032.       1040.       1060.       0.000    
  13    997.0       1004.       1008.       1014.       1020.       1027.       1032.       1038.       1050.       0.000    
  14    0.000       1030.       1040.       1045.       1050.       1050.       1050.       1050.       1044.       0.000    
  15    0.000       0.000       1080.       1080.       1080.       1080.       0.000       0.000       0.000       0.000    



             MODEL LAYER BOTTOM EL. FOR LAYER   2
 READING ON UNIT    8 WITH FORMAT: (10F7.0)            

            1           2           3           4           5           6           7           8           9          10
 ........................................................................................................................
   1    1000.       1000.       0.000       0.000       0.000       0.000       0.000       0.000       0.000       0.000    
   2    1000.       900.0       900.0       0.000       0.000       950.0       950.0       950.0       0.000       0.000    
   3    0.000       850.0       670.0       680.0       680.0       770.0       770.0       890.0       0.000       0.000    
   4    925.0       850.0       650.0       650.0       650.0       680.0       740.0       850.0       950.0       0.000    
   5    925.0       800.0       650.0       600.0       600.0       600.0       650.0       720.0       850.0       950.0    
   6    925.0       800.0       650.0       600.0       550.0       600.0       650.0       720.0       850.0       970.0    
   7    925.0       800.0       650.0       600.0       550.0       600.0       650.0       720.0       950.0       0.000    
   8    0.000       850.0       700.0       650.0       570.0       600.0       700.0       850.0       950.0       0.000    
   9    0.000       850.0       700.0       650.0       540.0       580.0       700.0       850.0       950.0       0.000    
  10    0.000       850.0       700.0       630.0       530.0       580.0       650.0       800.0       900.0       950.0    
  11    0.000       850.0       700.0       620.0       580.0       620.0       700.0       800.0       900.0       0.000    
  12    900.0       830.0       710.0       640.0       600.0       650.0       700.0       800.0       900.0       0.000    
  13    900.0       810.0       750.0       700.0       650.0       700.0       750.0       800.0       900.0       0.000    
  14    0.000       950.0       850.0       850.0       850.0       850.0       850.0       850.0       850.0       0.000    
  15    0.000       0.000       950.0       950.0       950.0       950.0       0.000       0.000       0.000       0.000    


 STRESS PERIOD     LENGTH       TIME STEPS     MULTIPLIER FOR DELT    SS FLAG
 ----------------------------------------------------------------------------
        1         2628000.          1                    1.000         SS
        2         2628000.         15                    1.000         TR
        3         2628000.         15                    1.000         TR
        4         2628000.         15                    1.000         TR
        5         2628000.         15                    1.000         TR
        6         2628000.         15                    1.000         TR
        7         2628000.         15                    1.000         TR
        8         2628000.         15                    1.000         TR
        9         2628000.         15                    1.000         TR
       10         2628000.         15                    1.000         TR
       11         2628000.         15                    1.000         TR
       12        2.1024000E+07    120                    1.000         TR

 COMBINED STEADY-STATE AND TRANSIENT SIMULATION



 
 #Test Simulation 2-- Example problem using the UZF1 Package                     
 #Modified from example Problem 1 of SFR1 documentation report                   
 THE FREE FORMAT OPTION HAS BEEN SELECTED



                     BOUNDARY ARRAY FOR LAYER   1
 READING ON UNIT   75 WITH FORMAT: (20I4)              

                1           2           3           4           5           6           7           8           9          10
 ............................................................................................................................
   1            0           0           0           0           0           0           0           0           0           0
   2            0           0           0           0           0           0           0           0           0           0
   3            0           0           0           0           0           0           0           0           0           0
   4            0           0           0           0           0           0           0           0           0           0
   5            0           0           0           0           0           0           0           0           0           0
   6            0           0           0           0           0           0           0           0           0           0
   7            0           0           0           0           0           0           0           0           0           0
   8            0           0           0           0           0           0           0           0           0           0
   9            0           0           0           0           0           0           0           0           0           0
  10            0           0           0           0           0           0           0           0           0           0
  11            0           0           0           0           0           0           0           0           0           0
  12            0           0           0           0           0           0           0           0           0           0
  13            0           0           0           0           0           0           0           0           0           0
  14            0           0           0           0           0           0           0           0           0           0
  15            0           0           0           0           0           0           0           0           0           0



                     BOUNDARY ARRAY FOR LAYER   2
 READING ON UNIT   75 WITH FORMAT: (20I4)              

                1           2           3           4           5           6           7           8           9          10
 ............................................................................................................................
   1            1           1           0           0           0           0           0           0           0           0
   2            1           1           1           0           0           1           1           1           0           0
   3            0           1           1           1           1           1           1           1           0           0
   4            1           1           1           1           1           1           1           1           1           0
   5            1           1           1           1           1           1           1           1           1           1
   6            1           1           1           1           1           1           1           1           1           1
   7            1           1           1           1           1           1           1           1           1           0
   8            0           1           1           1           1           1           1           1           1           0
   9            0           1           1           1           1           1           1           1           1           0
  10            0           1           1           1           1           1           1           1           1           1
  11            0           1           1           1           1           1           1           1           1           0
  12            1           1           1           1           1           1           1           1           1           0
  13            1           1           1           1           1           1           1           1           1           0
  14            0           1           1           1           1           1           1           1           1           0
  15            0           0           1           1           1           1           0           0           0           0

 AQUIFER HEAD WILL BE SET TO   6999.0     AT ALL NO-FLOW NODES (IBOUND=0).



                       INITIAL HEAD FOR LAYER   1
 READING ON UNIT   75 WITH FORMAT: (10F10.3)           

            1           2           3           4           5           6           7           8           9          10
 ........................................................................................................................
   1    1092.       1089.       6999.       6999.       6999.       6999.       6999.       6999.       6999.       6999.    
   2    1089.       1084.       1079.       6999.       6999.       1072.       1071.       1071.       6999.       6999.    
   3    6999.       1076.       1071.       1067.       1066.       1067.       1067.       1068.       6999.       6999.    
   4    1067.       1068.       1065.       1061.       1059.       1059.       1060.       1063.       1064.       6999.    
   5    1063.       1060.       1057.       1055.       1055.       1055.       1056.       1058.       1062.       1065.    
   6    1059.       1055.       1051.       1050.       1050.       1051.       1053.       1055.       1059.       1064.    
   7    1056.       1049.       1045.       1044.       1045.       1047.       1049.       1052.       1055.       6999.    
   8    6999.       1043.       1040.       1039.       1040.       1042.       1044.       1048.       1050.       6999.    
   9    6999.       1035.       1034.       1034.       1035.       1037.       1038.       1041.       1045.       6999.    
  10    6999.       1028.       1028.       1029.       1030.       1032.       1034.       1036.       1041.       1046.    
  11    6999.       1020.       1021.       1024.       1026.       1029.       1031.       1033.       1037.       6999.    
  12    1003.       1010.       1014.       1019.       1023.       1026.       1029.       1032.       1036.       6999.    
  13    996.5       1001.       1009.       1014.       1020.       1025.       1029.       1034.       1037.       6999.    
  14    6999.       1008.       1011.       1016.       1021.       1026.       1030.       1035.       1039.       6999.    
  15    6999.       6999.       1021.       1023.       1027.       1029.       6999.       6999.       6999.       6999.    



                       INITIAL HEAD FOR LAYER   2
 READING ON UNIT   75 WITH FORMAT: (10F10.3)           

            1           2           3           4           5           6           7           8           9          10
 ........................................................................................................................
   1    1092.       1089.       6999.       6999.       6999.       6999.       6999.       6999.       6999.       6999.    
   2    1089.       1084.       1079.       6999.       6999.       1072.       1071.       1071.       6999.       6999.    
   3    6999.       1076.       1071.       1067.       1066.       1067.       1067.       1068.       6999.       6999.    
   4    1067.       1068.       1065.       1061.       1059.       1059.       1060.       1063.       1064.       6999.    
   5    1063.       1060.       1057.       1055.       1055.       1055.       1056.       1058.       1062.       1065.    
   6    1059.       1055.       1051.       1050.       1050.       1051.       1053.       1055.       1059.       1064.    
   7    1056.       1049.       1045.       1044.       1045.       1047.       1049.       1052.       1055.       6999.    
   8    6999.       1043.       1040.       1039.       1040.       1042.       1044.       1048.       1050.       6999.    
   9    6999.       1035.       1034.       1034.       1035.       1037.       1038.       1041.       1045.       6999.    
  10    6999.       1028.       1028.       1029.       1030.       1032.       1034.       1036.       1041.       1046.    
  11    6999.       1020.       1021.       1024.       1026.       1029.       1031.       1033.       1037.       6999.    
  12    1003.       1010.       1014.       1019.       1023.       1026.       1029.       1032.       1036.       6999.    
  13    996.5       1001.       1009.       1014.       1020.       1025.       1029.       1034.       1037.       6999.    
  14    6999.       1008.       1011.       1016.       1021.       1026.       1030.       1035.       1039.       6999.    
  15    6999.       6999.       1021.       1023.       1027.       1029.       6999.       6999.       6999.       6999.    

 OUTPUT CONTROL IS SPECIFIED ONLY AT TIME STEPS FOR WHICH OUTPUT IS DESIRED
 HEADS WILL BE SAVED WITH FORMAT: (10F10.3)           
 SAVED HEADS WILL BE LABELED
 HEAD PRINT FORMAT CODE IS   4    DRAWDOWN PRINT FORMAT CODE IS   0
 HEADS WILL BE SAVED ON UNIT   58    DRAWDOWNS WILL BE SAVED ON UNIT    0
 # MODFLOW-NWT

 NWT1 -- Newton Solver, VERSION 1.1.3, 8/01/2017
         INPUT READ FROM UNIT 13

 SPECIFIED OPTION:
 SOLVER INPUT VALUES ARE SPECIFIED BY USER
 ***XMD linear solver will be used***
 
   CONVERGENCE CRITERION OF   0.100000E-02 FOR HEAD SOLUTION
   AND A TOLERANCE OF   0.100000E+01 FOR FLOW SOLUTION AND 
   A MAXIMUM OF   500 OUTER ITERATIONS. 


   D-B-D REDUCTION FACTOR OF    0.960000E+00 AND 
   A D-B-D INCREASE FACTOR OF    0.100000E-03 AND 
   A D-B-D RELAXATION OF    0.000000E+00 AND 
   A MOMENTUM FACTOR OF    0.100000E+00 .


 ***BACKTRACKING IS INACTIVE***
 XMD -- LINEAR SOLUTION BY XMD PACKAGE VERSION 1.30
     BY MOTOMU IBARAKI, OHIO STATE UNIVERSITY, COLOMBUS, OH
                 INPUT READ FROM UNIT 13
 ACCELERATION METHOD                    (IACL) =         1
 NODE ORDERING FLAG                   (NORDER) =         0
 LEVEL OF FILL                         (LEVEL) =         5
 MAXIMUM NUMBER OF ORTHOGONALIZATIONS  (NORTH) =         7
 INDEX FOR USING REDUCED SYSTEM      (IREDSYS) =         1
 RESID. REDUCTION CONVERGE CRITERION  (RRCTOL) =  0.000000E+00
 INDEX FOR USING DROP TOLERANCE     (IDROPTOL) =         0
 DROP TOLERANCE VALUE                  (EPSRN) =  0.500000E-02
 CONVERGENCE CRITERIA OF           (HCLOSEXMD) =  0.100000E-02
 MAX. NUMBER OF LINEAR ITERATIONS  (MXITERXMD) =        50


 UPW1 -- UPSTREAM WEIGHTING FLOW PACKAGE, VERSION 1.1.3, 8/01/2017
         INPUT READ FROM UNIT  7

 #Layer-Property Flow Package input for test simulation 2
 No named parameters

   LAYER FLAGS:
 LAYER       LAYTYP          LAYAVG    CHANI           LAYVKA           LAYWET
 ---------------------------------------------------------------------------
    1             1             0     1.000E+00             0             0
    2             1             0     1.000E+00             0             0

   INTERPRETATION OF LAYER FLAGS:
                        INTERBLOCK     HORIZONTAL    DATA IN
         LAYER TYPE   TRANSMISSIVITY   ANISOTROPY   ARRAY VKA   WETTABILITY
 LAYER   (LAYTYP)        (LAYAVG)      (CHANI)     (LAYVKA)       (LAYWET)
 ---------------------------------------------------------------------------
    1   CONVERTIBLE      HARMONIC     1.000E+00    VERTICAL K  NON-WETTABLE
    2   CONVERTIBLE      HARMONIC     1.000E+00    VERTICAL K  NON-WETTABLE



              HYD. COND. ALONG ROWS FOR LAYER   1
 READING ON UNIT    7 WITH FORMAT: (10F5.0)            

            1           2           3           4           5           6           7           8           9          10
 ........................................................................................................................
   1   3.0000E-03  3.0000E-03   0.000       0.000       0.000       0.000       0.000       0.000       0.000       0.000    
   2   6.0000E-04  3.0000E-03  3.0000E-03   0.000       0.000      6.0000E-04  6.0000E-04  6.0000E-04   0.000       0.000    
   3    0.000      6.0000E-04  3.0000E-03  3.0000E-03  6.0000E-04  6.0000E-04  6.0000E-04  6.0000E-04   0.000       0.000    
   4   6.0000E-04  6.0000E-04  6.0000E-04  3.0000E-03  3.0000E-03  3.0000E-03  6.0000E-04  6.0000E-04  6.0000E-04   0.000    
   5   6.0000E-04  6.0000E-04  6.0000E-04  3.0000E-03  3.0000E-03  3.0000E-03  3.0000E-03  3.0000E-03  3.0000E-03  3.0000E-03
   6   6.0000E-04  6.0000E-04  6.0000E-04  3.0000E-03  3.0000E-03  3.0000E-03  3.0000E-03  3.0000E-03  6.0000E-04  6.0000E-04
   7   6.0000E-04  6.0000E-04  6.0000E-04  3.0000E-03  3.0000E-03  3.0000E-03  3.0000E-03  3.0000E-03  6.0000E-04   0.000    
   8    0.000      6.0000E-04  6.0000E-04  3.0000E-03  3.0000E-03  3.0000E-03  3.0000E-03  6.0000E-04  6.0000E-04   0.000    
   9    0.000      6.0000E-04  6.0000E-04  3.0000E-03  3.0000E-03  3.0000E-03  3.0000E-03  6.0000E-04  6.0000E-04   0.000    
  10    0.000      6.0000E-04  6.0000E-04  3.0000E-03  3.0000E-03  3.0000E-03  3.0000E-03  6.0000E-04  6.0000E-04  6.0000E-04
  11    0.000      6.0000E-04  6.0000E-04  3.0000E-03  3.0000E-03  3.0000E-03  3.0000E-03  6.0000E-04  6.0000E-04   0.000    
  12   6.0000E-04  6.0000E-04  3.0000E-03  3.0000E-03  3.0000E-03  3.0000E-03  3.0000E-03  6.0000E-04  6.0000E-04   0.000    
  13   3.0000E-03  3.0000E-03  3.0000E-03  3.0000E-03  3.0000E-03  3.0000E-03  3.0000E-03  3.0000E-03  3.0000E-03   0.000    
  14    0.000      6.0000E-04  6.0000E-04  6.0000E-04  6.0000E-04  6.0000E-04  6.0000E-04  6.0000E-04  3.0000E-03   0.000    
  15    0.000       0.000      6.0000E-04  6.0000E-04  6.0000E-04  6.0000E-04   0.000       0.000       0.000       0.000    

      VERTICAL HYD. COND. =  8.000000E-05 FOR LAYER   1

         SPECIFIC STORAGE =  1.000000E-06 FOR LAYER   1



                     SPECIFIC YIELD FOR LAYER   1
 READING ON UNIT    7 WITH FORMAT: (10F5.0)            

            1           2           3           4           5           6           7           8           9          10
 ........................................................................................................................
   1   0.2000      0.2000       0.000       0.000       0.000       0.000       0.000       0.000       0.000       0.000    
   2   0.1000      0.2000      0.2000       0.000       0.000      0.1000      0.1000      0.1000       0.000       0.000    
   3    0.000      0.1000      0.2000      0.2000      0.1000      0.1000      0.1000      0.1000       0.000       0.000    
   4   0.1000      0.1000      0.1000      0.2000      0.2000      0.2000      0.1000      0.1000      0.1000       0.000    
   5   0.1000      0.1000      0.1000      0.2000      0.2000      0.2000      0.2000      0.2000      0.2000      0.2000    
   6   0.1000      0.1000      0.1000      0.2000      0.2000      0.2000      0.2000      0.2000      0.1000      0.1000    
   7   0.1000      0.1000      0.1000      0.2000      0.2000      0.2000      0.2000      0.2000      0.1000       0.000    
   8    0.000      0.1000      0.1000      0.2000      0.2000      0.2000      0.2000      0.1000      0.1000       0.000    
   9    0.000      0.1000      0.1000      0.2000      0.2000      0.2000      0.2000      0.1000      0.1000       0.000    
  10    0.000      0.1000      0.1000      0.2000      0.2000      0.2000      0.2000      0.1000      0.1000      0.1000    
  11    0.000      0.1000      0.1000      0.2000      0.2000      0.2000      0.2000      0.1000      0.1000       0.000    
  12   0.1000      0.1000      0.2000      0.2000      0.2000      0.2000      0.2000      0.1000      0.1000       0.000    
  13   0.2000      0.2000      0.2000      0.2000      0.2000      0.2000      0.2000      0.2000      0.2000       0.000    
  14    0.000      0.1000      0.1000      0.1000      0.1000      0.1000      0.1000      0.1000      0.2000       0.000    
  15    0.000       0.000      0.1000      0.1000      0.1000      0.1000       0.000       0.000       0.000       0.000    



              HYD. COND. ALONG ROWS FOR LAYER   2
 READING ON UNIT    7 WITH FORMAT: (10F5.0)            

            1           2           3           4           5           6           7           8           9          10
 ........................................................................................................................
   1   3.0000E-03  3.0000E-03   0.000       0.000       0.000       0.000       0.000       0.000       0.000       0.000    
   2   6.0000E-04  3.0000E-03  3.0000E-03   0.000       0.000      6.0000E-04  6.0000E-04  6.0000E-04   0.000       0.000    
   3    0.000      6.0000E-04  3.0000E-03  3.0000E-03  6.0000E-04  6.0000E-04  6.0000E-04  6.0000E-04   0.000       0.000    
   4   6.0000E-04  6.0000E-04  6.0000E-04  3.0000E-03  3.0000E-03  3.0000E-03  6.0000E-04  6.0000E-04  6.0000E-04   0.000    
   5   6.0000E-04  6.0000E-04  6.0000E-04  3.0000E-03  3.0000E-03  3.0000E-03  3.0000E-03  3.0000E-03  3.0000E-03  3.0000E-03
   6   6.0000E-04  6.0000E-04  6.0000E-04  3.0000E-03  3.0000E-03  3.0000E-03  3.0000E-03  3.0000E-03  6.0000E-04  6.0000E-04
   7   6.0000E-04  6.0000E-04  6.0000E-04  3.0000E-03  3.0000E-03  3.0000E-03  3.0000E-03  3.0000E-03  6.0000E-04   0.000    
   8    0.000      6.0000E-04  6.0000E-04  3.0000E-03  3.0000E-03  3.0000E-03  3.0000E-03  6.0000E-04  6.0000E-04   0.000    
   9    0.000      6.0000E-04  6.0000E-04  3.0000E-03  3.0000E-03  3.0000E-03  3.0000E-03  6.0000E-04  6.0000E-04   0.000    
  10    0.000      6.0000E-04  6.0000E-04  3.0000E-03  3.0000E-03  3.0000E-03  3.0000E-03  6.0000E-04  6.0000E-04  6.0000E-04
  11    0.000      6.0000E-04  6.0000E-04  3.0000E-03  3.0000E-03  3.0000E-03  3.0000E-03  6.0000E-04  6.0000E-04   0.000    
  12   6.0000E-04  6.0000E-04  3.0000E-03  3.0000E-03  3.0000E-03  3.0000E-03  3.0000E-03  6.0000E-04  6.0000E-04   0.000    
  13   3.0000E-03  3.0000E-03  3.0000E-03  3.0000E-03  3.0000E-03  3.0000E-03  3.0000E-03  3.0000E-03  3.0000E-03   0.000    
  14    0.000      6.0000E-04  6.0000E-04  6.0000E-04  6.0000E-04  6.0000E-04  6.0000E-04  6.0000E-04  3.0000E-03   0.000    
  15    0.000       0.000      6.0000E-04  6.0000E-04  6.0000E-04  6.0000E-04   0.000       0.000       0.000       0.000    

      VERTICAL HYD. COND. =  8.000000E-05 FOR LAYER   2

         SPECIFIC STORAGE =  1.000000E-06 FOR LAYER   2



                     SPECIFIC YIELD FOR LAYER   2
 READING ON UNIT    7 WITH FORMAT: (10F5.0)            

            1           2           3           4           5           6           7           8           9          10
 ........................................................................................................................
   1   0.2000      0.2000       0.000       0.000       0.000       0.000       0.000       0.000       0.000       0.000    
   2   0.1000      0.2000      0.2000       0.000       0.000      0.1000      0.1000      0.1000       0.000       0.000    
   3    0.000      0.1000      0.2000      0.2000      0.1000      0.1000      0.1000      0.1000       0.000       0.000    
   4   0.1000      0.1000      0.1000      0.2000      0.2000      0.2000      0.1000      0.1000      0.1000       0.000    
   5   0.1000      0.1000      0.1000      0.2000      0.2000      0.2000      0.2000      0.2000      0.2000      0.2000    
   6   0.1000      0.1000      0.1000      0.2000      0.2000      0.2000      0.2000      0.2000      0.1000      0.1000    
   7   0.1000      0.1000      0.1000      0.2000      0.2000      0.2000      0.2000      0.2000      0.1000       0.000    
   8    0.000      0.1000      0.1000      0.2000      0.2000      0.2000      0.2000      0.1000      0.1000       0.000    
   9    0.000      0.1000      0.1000      0.2000      0.2000      0.2000      0.2000      0.1000      0.1000       0.000    
  10    0.000      0.1000      0.1000      0.2000      0.2000      0.2000      0.2000      0.1000      0.1000      0.1000    
  11    0.000      0.1000      0.1000      0.2000      0.2000      0.2000      0.2000      0.1000      0.1000       0.000    
  12   0.1000      0.1000      0.2000      0.2000      0.2000      0.2000      0.2000      0.1000      0.1000       0.000    
  13   0.2000      0.2000      0.2000      0.2000      0.2000      0.2000      0.2000      0.2000      0.2000       0.000    
  14    0.000      0.1000      0.1000      0.1000      0.1000      0.1000      0.1000      0.1000      0.2000       0.000    
  15    0.000       0.000      0.1000      0.1000      0.1000      0.1000       0.000       0.000       0.000       0.000    

 WEL -- WELL PACKAGE FOR NWT VERSION 1.1.2,  9/15/2016 INPUT READ FROM UNIT   16
 #Well Package input for test simulation 2
 No named parameters
 MAXIMUM OF     10 ACTIVE WELLS AT ONE TIME
 CELL-BY-CELL FLOWS WILL BE PRINTED WHEN ICBCFL NOT 0
 No named parameters
  PHIRAMP WILL BE SET TO A DEFAULT VALUE OF 1.0E-5
  WELLS WITH REDUCED PUMPING WILL BE REPORTED TO THE MAIN LISTING FILE


     0 Well parameters

 GHB -- GENERAL-HEAD BOUNDARY PACKAGE, VERSION 7, 5/2/2005
         INPUT READ FROM UNIT   17
 No named parameters
 MAXIMUM OF      2 ACTIVE GHB CELLS AT ONE TIME
 CELL-BY-CELL FLOWS WILL BE PRINTED WHEN ICBCFL NOT 0


     0 GHB parameters

 SFR7 -- STREAMFLOW ROUTING PACKAGE, VERSION 1.0.5, 2012-04-05
         INPUT READ FROM UNIT  15
 #SFR2 Package input for Test Simulation 2
 No named parameters

 PROCESSING SFR2 OPTIONS
          1 Specified inflow files will be read with a maximum of         50 row entries per file

 END PROCESSING SFR2 OPTIONS


 NUMBER OF STREAM REACHES IS   38

 NUMBER OF STREAM SEGMENTS IS   10

 NUMBER OF STREAM PARAMETERS IS    0

 NUMBER OF STREAM SEGMENTS DEFINED USING PARAMETERS IS              0

 MAXIMUM ERROR FOR STREAM LEAKAGE RATES IS  1.00E-06

 CONSTANT FOR MANNINGS EQUATION IS  1.4860E+00



 STREAM OUTPUT WILL BE WRITTEN TO FILE ON UNIT   81


   STREAM NETWORK DESCRIPTION: 

   LAYER    ROW    COL   SEGMENT   REACH     LENGTH
                          NUMBER   NUMBER    IN CELL        
   --------------------------------------------------
      2      1      1       1        1    4.5000E+03
      2      2      2       1        2    7.0000E+03
      2      3      3       1        3    6.0000E+03
      2      3      4       1        4    5.5500E+03
      2      4      5       2        1    6.5000E+03
      2      5      6       2        2    5.0000E+03
      2      6      6       2        3    5.0000E+03
      2      7      6       2        4    5.0000E+03
      2      8      6       2        5    5.0000E+03
      2      3      5       3        1    5.0000E+03
      2      3      6       3        2    5.0000E+03
      2      3      7       3        3    4.5000E+03
      2      4      8       3        4    6.0000E+03
      2      5      8       3        5    5.0000E+03
      2      6      8       3        6    2.0000E+03
      2      5     10       4        1    2.5000E+03
      2      5      9       4        2    5.0000E+03
      2      6      8       4        3    3.5000E+03
      2      6      8       5        1    4.0000E+03
      2      7      7       5        2    5.0000E+03
      2      8      7       5        3    3.5000E+03
      2      8      6       5        4    2.5000E+03
      2      9      6       6        1    5.0000E+03
      2     10      7       6        2    5.0000E+03
      2     11      7       6        3    5.0000E+03
      2     12      7       6        4    5.0000E+03
      2     13      7       6        5    2.0000E+03
      2     14      9       7        1    5.0000E+03
      2     13      8       7        2    5.5000E+03
      2     13      7       7        3    5.0000E+03
      2     13      6       8        1    5.0000E+03
      2     13      5       8        2    5.0000E+03
      2     13      4       8        3    5.0000E+03
      2     13      3       8        4    5.0000E+03
      2     13      2       8        5    5.0000E+03
      2     13      1       8        6    3.0000E+03
      2      4      5       9        1    1.0000E+01
      2      4      5      10        1    1.0000E+01




 UZF1 -- UNSATURATED FLOW PACKAGE, VERSION 1.4, 02/06/2012
         INPUT READ FROM UNIT 19
 #UZF Package input for test simulation 2
 No named parameters

 PROCESSING UZF OPTIONS
 
 INITIAL WATER CONTENT (THTI) WILL BE 
READ FOR THE FIRST SS OR TR STRESS PERIOD
 

 END PROCESSING UZF OPTIONS



            AREAL EXTENT OF UZ FLOW
 READING ON UNIT   19 WITH FORMAT: (20I4)              

                1           2           3           4           5           6           7           8           9          10
 ............................................................................................................................
   1            2           2           0           0           0           0           0           0           0           0
   2            2           2           2           0           0           2           2           2           0           0
   3            0           2           2           2           2           2           2           2           0           0
   4            2           2           2           2           2           2           2           2           2           0
   5            2           2           2           2           2           2           2           2           2           2
   6            2           2           2           2           2           2           2           2           2           2
   7            2           2           2           2           2           2           2           2           2           0
   8            0           2           2           2           2           2           2           2           2           0
   9            0           2           2           2           2           2           2           2           2           0
  10            0           2           2           2           2           2           2           2           2           2
  11            0           2           2           2           2           2           2           2           2           0
  12            2           2           2           2           2           2           2           2           2           0
  13            2           2           2           2           2           2           2           2           2           0
  14            0           2           2           2           2           2           2           2           2           0
  15            0           0           2           2           2           2           0           0           0           0
 OPTION 3 -- RECHARGE IN UZF TO HIGHEST ACTIVE NODE IN EACH VERTICAL COLUMN



            ROUTING OVERLAND RUNOFF
 READING ON UNIT   19 WITH FORMAT: (20I4)              

                1           2           3           4           5           6           7           8           9          10
 ............................................................................................................................
   1            1           1           0           0           0           0           0           0           0           0
   2            1           1           1           0           0           3           3           3           0           0
   3            0           1           1           1           3           3           3           3           0           0
   4            8           8           2           2           2           2           2           3           3           0
   5            8           8           8           8           2           2           2           3           4           4
   6            8           8           8           8           8           2           2           4           4           4
   7            8           8           8           8           8           2           5           5           5           0
   8            0           8           8           8           8           2           5           5           5           0
   9            0           8           8           8           8           6           6           6           6           0
  10            0           8           8           8           8           6           6           6           6           6
  11            0           8           8           8           8           8           6           6           7           0
  12            8           8           8           8           8           8           6           7           7           0
  13            8           8           8           8           8           8           7           7           7           0
  14            0           8           8           8           8           8           7           7           7           0
  15            0           0           8           8           8           8           0           0           0           0

     BROOKS-COREY EPSILON =   3.50000    

  SATURATED WATER CONTENT =  0.300000    



              INITIAL WATER CONTENT
 READING ON UNIT   19 WITH FORMAT: (FREE)              

            1           2           3           4           5           6           7           8           9          10
 ........................................................................................................................
   1   0.1100      0.1100       0.000       0.000       0.000       0.000       0.000       0.000       0.000       0.000    
   2   0.2100      0.1100      0.1100       0.000       0.000      0.2100      0.2100      0.2100       0.000       0.000    
   3    0.000      0.2100      0.1100      0.1100      0.2100      0.2100      0.2100      0.2100       0.000       0.000    
   4   0.2100      0.2100      0.2100      0.1100      0.1100      0.1100      0.2100      0.2100      0.2100       0.000    
   5   0.2100      0.2100      0.2100      0.1100      0.1100      0.1100      0.1100      0.1100      0.1100      0.1100    
   6   0.2100      0.2100      0.2100      0.1100      0.1100      0.1100      0.1100      0.1100      0.2100      0.2100    
   7   0.2100      0.2100      0.2100      0.1100      0.1100      0.1100      0.1100      0.1100      0.2100       0.000    
   8    0.000      0.2100      0.2100      0.1100      0.1100      0.1100      0.1100      0.2100      0.2100       0.000    
   9    0.000      0.2100      0.2100      0.1100      0.1100      0.1100      0.1100      0.2100      0.2100       0.000    
  10    0.000      0.2100      0.2100      0.1100      0.1100      0.1100      0.1100      0.2100      0.2100      0.2100    
  11    0.000      0.2100      0.2100      0.1100      0.1100      0.1100      0.1100      0.2100      0.2100       0.000    
  12   0.2100      0.2100      0.1100      0.1100      0.1100      0.1100      0.1100      0.2100      0.2100       0.000    
  13   0.1100      0.1100      0.1100      0.1100      0.1100      0.1100      0.1100      0.1100      0.1100       0.000    
  14    0.000      0.2100      0.2100      0.2100      0.2100      0.2100      0.2100      0.2100      0.1100       0.000    
  15    0.000       0.000      0.2100      0.2100      0.2100      0.2100       0.000       0.000       0.000       0.000    

UNSATURATED FLOW RESULTS WILL BE PRINTED TO SEPARATE FILES FOR SELECTED MODEL CELLS, AND TIME STEPS AS DEFINED BY OUTPUT CONTROL PACKAGE 

SELECTED MODEL CELLS ARE: 
 ROW NUMBER  COLUMN NUMBER  FORTRAN UNIT NUMBER  OUTPUT OPTION


       4             5                 65                 1
       4             5                 66                 2
       4             5                 67                 3
       0             0                 68                 4

 LAK7 -- LAKE PACKAGE, VERSION 7, 1/07/2013 INPUT READ FROM UNIT 33
 # Example input for specifying lake bathymetry information using external
 # text files using key word option “TABLEINPUT”
 No named parameters

 SPACE ALLOCATION FOR    150 GRID CELL FACES ADJACENT TOLAKES
 MAXIMUM NUMBER OF LAKES IS  1 FOR THIS SIMULATION
 CELL-BY-CELL SEEPAGES WILL NOT BE PRINTED OR SAVED


 NEWTON ITERATION METHOD FOR COMPUTING LAKE STAGE DURING STEADY-STATE STRESS PERIODS HAS BEEN MODIFIED:
 SPECIFIED THETA OF  0.800 WILL BE AUTOMATICALLY CHANGED TO 1.0 FOR ALL STEADY STATE STRESS PERIODS.
 MAXIMUM NUMBER OF STEADY-STATE ITERATIONS (NSSITR) =    50
 CLOSURE CRITERIA FOR STEADY-STATE LAKE STAGE (SSCNCR) =  1.000000E-04





   3 GAGING STATIONS WERE SPECIFIED.
     (Lakes are identified by a negative value of the Lake Number)
     RECORDS WILL BE WRITTEN TO SEPARATE OUTPUT FILES REPRESENTED BY FOLLOWING UNIT NUMBERS:

 Stream Gages:
  GAGE #   SEGMENT   REACH   UNIT   OUTTYPE
       1       1       4      83       4
       2       2       1      84       4
 Lake Gages:
  GAGE #    LAKE     UNIT   OUTTYPE
       3      -1    -801       3




1
                            STRESS PERIOD NO.    1, LENGTH =   2628000.    
                            -----------------------------------------------

                              NUMBER OF TIME STEPS =     1

                               MULTIPLIER FOR DELT =     1.000

                            INITIAL TIME STEP SIZE =   2628000.    

 WELL NO.  LAYER   ROW   COL   STRESS RATE         
 --------------------------------------------------
      1      2      6      4      -2.000    
      2      2      6      5      -2.000    
      3      2      7      4      -2.000    
      4      2      7      5      -2.000    
      5      2      8      4      -2.000    
      6      2      8      5      -2.000    
      7      2      9      4      -2.000    
      8      2      9      5      -2.000    
      9      2     10      4      -2.000    
     10      2     10      5      -2.000    

     10 WELLS

 BOUND. NO. LAYER   ROW   COL     STAGE      CONDUCTANCE         
 ----------------------------------------------------------------
      1      2     13      1       988.0          0.3800E-01
      2      2     14      9       1045.          0.3800E-01

      2 GHB CELLS



 CLASSIFICATION & COUNT OF STREAM SEGMENTS BASED ON SOURCE OF INFLOW:

                HEADWATER     DIVERSION     RECEIVES TRIBUTARY FLOW
                ---------     ---------     -----------------------
                     3              3               4



                    INPUT DATA FOR EACH STREAM SEGMENT
 ---------------------------------------------------------------------------------------------

 SEGMENT    SEG.     INFLOW   OVERLAND   STREAM    STREAM   ICALC  OUTFLOW  DIVERSION PRIORITY
    NO.    LENGTH     RATE     RUNOFF      ET       PPT.    METH.  TO SEG.  FROM SEG.    NO.

      1  2.305E+04 2.500E+01 0.000E+00 0.000E+00 0.000E+00    4        2        0        0
      2  2.650E+04 0.000E+00 0.000E+00 0.000E+00 0.000E+00    1        6        0        0
      3  2.750E+04 1.000E+01 0.000E+00 0.000E+00 0.000E+00    0        5        1        0
      4  1.100E+04 1.000E+01 0.000E+00 0.000E+00 0.000E+00    1        5        0        0
      5  1.500E+04 0.000E+00 0.000E+00 0.000E+00 0.000E+00    3        6        0        0
      6  2.200E+04 0.000E+00 0.000E+00 0.000E+00 0.000E+00    1        8        0        0
      7  1.550E+04 1.500E+02 0.000E+00 0.000E+00 0.000E+00    2        8        0        0
      8  2.800E+04 0.000E+00 0.000E+00 0.000E+00 0.000E+00    2        0        0        0
      9  1.000E+01 2.000E+03 0.000E+00 0.000E+00 0.000E+00    1       -1        1       -3
     10  1.000E+01 0.000E+00 0.000E+00 0.000E+00 0.000E+00    1        2       -1        0


         STREAMBED PROPERTIES AND STREAM DIMENSIONS

 SEGMENT     BED HYD. COND.      BED THICKNESS     ELEV.-TOP OF BED     WIDTH OF STREAM     DEPTH OF STREAM    STREAM ROUGHNESS
    No.     UPPER     LOWER     UPPER     LOWER     UPPER     LOWER     UPPER     LOWER     UPPER     LOWER   CHANNEL      BANK

     1  3.000E-05 3.000E-05 3.000E+00 3.000E+00 1.095E+03 1.075E+03
     2  3.000E-05 3.000E-05 3.000E+00 3.000E+00 1.075E+03 1.050E+03 1.200E+01 1.200E+01                     3.000E-02
     3  3.000E-05 3.000E-05 2.000E+00 2.000E+00 1.075E+03 1.060E+03 1.000E+01 6.000E+00 2.000E+00 1.000E+00
     4  3.000E-05 3.000E-05 3.000E+00 3.000E+00 1.080E+03 1.060E+03 1.000E+01 1.000E+01                     3.000E-02
     5  3.000E-05 3.000E-05 3.000E+00 3.000E+00 1.060E+03 1.045E+03
     6  3.000E-05 3.000E-05 3.000E+00 3.000E+00 1.045E+03 1.025E+03 1.200E+01 1.200E+01                     3.000E-02
     7  6.000E-05 6.000E-05 3.000E+00 3.000E+00 1.040E+03 1.025E+03                                         2.500E-02 4.500E-02
     8  6.000E-05 6.000E-05 3.000E+00 3.000E+00 1.025E+03 9.900E+02                                         2.500E-02 4.500E-02
     9  3.000E-05 3.000E-05 3.000E+00 3.000E+00 1.070E+03 1.050E+03 2.000E+01 2.000E+01                     3.000E-02
    10  3.000E-05 3.000E-05 3.000E+00 3.000E+00 1.083E+03 1.077E+03 2.000E+01 2.000E+01                     3.000E-02

  EIGHT POINT CROSS-SECTION DATA FOR SEGMENTS WITH ICALC = 2
    X VALUES X VALUES START FROM LEFT SIDE LOOKING DOWNSTREAM

     SEGMENT NO.        X1        X2        X3        X4        X5        X6        X7        X8
            7      0.000E+00 1.000E+01 8.000E+01 1.000E+02 1.500E+02 1.700E+02 2.400E+02 2.500E+02
            8      0.000E+00 1.000E+01 8.000E+01 1.000E+02 1.500E+02 1.700E+02 2.400E+02 2.500E+02

    Z VALUES ARE RELATIVE TO STREAMBED ELEVATION

     SEGMENT NO.          Z1        Z2        Z3        Z4        Z5        Z6        Z7        Z8
            7      2.000E+01 1.300E+01 1.000E+01 2.000E+00 0.000E+00 1.000E+01 1.300E+01 2.000E+01
            8      2.500E+01 1.700E+01 1.300E+01 4.000E+00 0.000E+00 1.000E+01 1.600E+01 2.000E+01

 STREAMFLOW RELATION WITH DEPTH IS BASED ON EQUATION Q = CDPTH*(DEPTH)**FDPTH
 STREAMFLOW RELATION WITH WIDTH IS BASED ON EQUATION Q = AWDTH*(WIDTH)**BWDTH

 SEGMENT NO.      CDPTH     FDPTH    AWDTH     BWDTH

          5 3.000E-01 3.500E-01 3.800E+00 6.000E-01

 STREAMFLOW RELATION WITH DEPTH AND WIDTH IS BASED ON TABULATED VALUES

  SEGMENT NO.   STREAMFLOW       DEPTH       WIDTH

          1     5.0000E-01   2.5000E-01   3.0000E+00
          1     1.0000E+00   4.0000E-01   3.5000E+00
          1     2.0000E+00   5.5000E-01   4.2000E+00
          1     4.0000E+00   7.0000E-01   5.3000E+00
          1     7.0000E+00   8.0000E-01   7.0000E+00
          1     1.0000E+01   9.0000E-01   8.5000E+00
          1     2.0000E+01   1.1000E+00   1.2000E+01
          1     3.0000E+01   1.2500E+00   1.4000E+01
          1     5.0000E+01   1.4000E+00   1.7000E+01
          1     7.5000E+01   1.7000E+00   2.0000E+01
          1     1.0000E+02   1.8000E+00   2.2000E+01



TABULAR INFLOWS WERE READ FOR SEGMENT      1
FROM FILE UNIT NUMBER     55

          TIMES                    INFLOWS
             0.0000000000        20.0000000000
        644000.0000000000        18.0000000000
       1290000.0000000000        18.0000000000
       1930000.0000000000        57.0000000000
       2580000.0000000000        22.0000000000
       3220000.0000000000        21.0000000000
       3860000.0000000000        26.0000000000
       4510000.0000000000        25.0000000000
       5150000.0000000000        25.0000000000
       5800000.0000000000        27.0000000000
       6440000.0000000000        24.0000000000
       7080000.0000000000        23.0000000000
       7730000.0000000000        24.0000000000
       8370000.0000000000        24.0000000000
       9020000.0000000000        25.0000000000
       9660000.0000000000        23.0000000000
      10300000.0000000000        21.0000000000
      10900000.0000000000        39.0000000000
      11600000.0000000000        29.0000000000
      12200000.0000000000      2520.0000000000
      12900000.0000000000       160.0000000000
      13500000.0000000000       100.0000000000
      14200000.0000000000        73.0000000000
      14800000.0000000000       503.0000000000
      15500000.0000000000       958.0000000000
      16100000.0000000000       304.0000000000
      16700000.0000000000       167.0000000000
      17400000.0000000000       119.0000000000
      18000000.0000000000       175.0000000000
      18700000.0000000000       627.0000000000
      19300000.0000000000       278.0000000000
      20000000.0000000000       288.0000000000
      20600000.0000000000       204.0000000000
      21300000.0000000000       148.0000000000
      21900000.0000000000       361.0000000000
      22500000.0000000000       165.0000000000
      23200000.0000000000       128.0000000000
      23800000.0000000000       117.0000000000
      24500000.0000000000        79.0000000000
      25100000.0000000000        61.0000000000
      25800000.0000000000        46.0000000000
      26400000.0000000000        37.0000000000
      27000000.0000000000        25.0000000000
      27700000.0000000000        19.0000000000
      28300000.0000000000        14.0000000000
      29000000.0000000000        15.0000000000
      29600000.0000000000        11.0000000000
      30300000.0000000000         8.0000000000
      30900000.0000000000         4.4000000954
      31600000.0000000000         2.5000000000



            AREAL INFILTRATION RATE
 READING ON UNIT   19 WITH FORMAT: (10F4.0)            

            1           2           3           4           5           6           7           8           9          10
 ........................................................................................................................
   1   1.0000E-10  2.0000E-10   0.000       0.000       0.000       0.000       0.000       0.000       0.000       0.000    
   2   2.0000E-10  1.0000E-10  2.0000E-10   0.000       0.000      8.0000E-10  8.0000E-10  5.0000E-10   0.000       0.000    
   3    0.000      5.0000E-10  1.0000E-10  1.0000E-10  8.0000E-10  8.0000E-10  5.0000E-10  5.0000E-10   0.000       0.000    
   4   8.0000E-10  5.0000E-10  1.0000E-10  1.0000E-10  1.0000E-10  1.0000E-10  1.0000E-10  1.0000E-10  2.0000E-10   0.000    
   5   8.0000E-10  5.0000E-10  1.0000E-10  1.0000E-10  1.0000E-10  1.0000E-10  1.0000E-10  1.0000E-10  1.0000E-10  1.0000E-10
   6   8.0000E-10  5.0000E-10  5.0000E-10  2.0000E-10  2.0000E-10  1.0000E-10  1.0000E-10  1.0000E-10  1.0000E-10  5.0000E-10
   7   8.0000E-10  5.0000E-10  5.0000E-10  2.0000E-10  2.0000E-10  1.0000E-10  1.0000E-10  2.0000E-10  2.0000E-10   0.000    
   8    0.000      5.0000E-10  5.0000E-10  2.0000E-10  2.0000E-10  1.0000E-10  1.0000E-10  2.0000E-10  5.0000E-10   0.000    
   9    0.000      5.0000E-10  5.0000E-10  2.0000E-10  2.0000E-10  1.0000E-10  1.0000E-10  2.0000E-10  5.0000E-10   0.000    
  10    0.000      5.0000E-10  5.0000E-10  2.0000E-10  2.0000E-10  1.0000E-10  1.0000E-10  2.0000E-10  5.0000E-10  8.0000E-10
  11    0.000      1.0000E-10  1.0000E-10  1.0000E-10  1.0000E-10  1.0000E-10  1.0000E-10  2.0000E-10  5.0000E-10   0.000    
  12   1.0000E-10  1.0000E-10  1.0000E-10  1.0000E-10  1.0000E-10  1.0000E-10  1.0000E-10  1.0000E-10  2.0000E-10   0.000    
  13   1.0000E-10  1.0000E-10  2.0000E-10  2.0000E-10  2.0000E-10  2.0000E-10  2.0000E-10  1.0000E-10  1.0000E-10   0.000    
  14    0.000      2.0000E-10  5.0000E-10  5.0000E-10  5.0000E-10  5.0000E-10  5.0000E-10  2.0000E-10  1.0000E-10   0.000    
  15    0.000       0.000      8.0000E-10  8.0000E-10  8.0000E-10  8.0000E-10   0.000       0.000       0.000       0.000    

                  ET RATE =  5.000000E-08

      ET EXTINCTION DEPTH =   15.0000    



           EXTINCTION WATER CONTENT
 READING ON UNIT   19 WITH FORMAT: (10F4.0)            

            1           2           3           4           5           6           7           8           9          10
 ........................................................................................................................
   1   0.1000      0.1000       0.000       0.000       0.000       0.000       0.000       0.000       0.000       0.000    
   2   0.2000      0.1000      0.1000       0.000       0.000      0.2000      0.2000      0.2000       0.000       0.000    
   3    0.000      0.2000      0.1000      0.1000      0.2000      0.2000      0.2000      0.2000       0.000       0.000    
   4   0.2000      0.2000      0.2000      0.1000      0.1000      0.1000      0.2000      0.2000      0.2000      0.1000    
   5   0.2000      0.2000      0.2000      0.1000      0.1000      0.1000      0.1000      0.1000      0.1000      0.1000    
   6   0.2000      0.2000      0.2000      0.1000      0.1000      0.1000      0.1000      0.1000      0.2000      0.2000    
   7   0.2000      0.2000      0.2000      0.1000      0.1000      0.1000      0.1000      0.1000      0.2000       0.000    
   8    0.000      0.2000      0.2000      0.1000      0.1000      0.1000      0.1000      0.2000      0.2000       0.000    
   9    0.000      0.2000      0.2000      0.1000      0.1000      0.1000      0.1000      0.2000      0.2000       0.000    
  10    0.000      0.2000      0.2000      0.1000      0.1000      0.1000      0.1000      0.2000      0.2000      0.2000    
  11    0.000      0.2000      0.2000      0.1000      0.1000      0.1000      0.1000      0.2000      0.2000       0.000    
  12   0.2000      0.2000      0.1000      0.1000      0.1000      0.1000      0.1000      0.2000      0.2000       0.000    
  13   0.1000      0.1000      0.1000      0.1000      0.1000      0.1000      0.1000      0.1000      0.1000       0.000    
  14    0.000      0.2000      0.2000      0.2000      0.2000      0.2000      0.2000      0.2000      0.1000       0.000    
  15    0.000       0.000      0.2000      0.2000      0.2000      0.2000       0.000       0.000       0.000       0.000    


 LAKE PACKAGE ACTIVE:  CALCULATED LAKE STAGE FOR EACH TIME STEP WILL BE STORED IN HNEW ARRAY.



 INITIAL LAKE STAGE:  LAKE    STAGE    SS MIN    SS MAX

                        1  1074.500  1074.500  1090.000




 If any subsequent steady-state stress periods, min. and max. stages for each lake will be read in Record 9a.




 STAGE/VOLUME RELATION FOR LAKE  1

      STAGE        VOLUME        AREA

   1.07450E+03   0.00000E+00   0.00000E+00
   1.07456E+03   1.06000E+04   1.67000E+05
   1.07463E+03   3.17000E+04   3.33000E+05
   1.07469E+03   6.33000E+04   5.00000E+05
   1.07475E+03   1.06000E+05   6.67000E+05
   1.07482E+03   1.58000E+05   8.33000E+05
   1.07488E+03   2.22000E+05   1.00000E+06
   1.07494E+03   2.96000E+05   1.17000E+06
   1.07501E+03   3.80000E+05   1.33000E+06
   1.07507E+03   4.75000E+05   1.50000E+06
   1.07513E+03   5.81000E+05   1.67000E+06
   1.07520E+03   6.97000E+05   1.83000E+06
   1.07526E+03   8.23000E+05   2.00000E+06
   1.07532E+03   9.61000E+05   2.17000E+06
   1.07539E+03   1.11000E+06   2.33000E+06
   1.07545E+03   1.27000E+06   2.50000E+06
   1.07551E+03   1.44000E+06   2.67000E+06
   1.07558E+03   1.61000E+06   2.83000E+06
   1.07564E+03   1.80000E+06   3.00000E+06
   1.07570E+03   2.01000E+06   3.17000E+06
   1.07577E+03   2.22000E+06   3.33000E+06
   1.07583E+03   2.44000E+06   3.50000E+06
   1.07589E+03   2.67000E+06   3.67000E+06
   1.07596E+03   2.91000E+06   3.83000E+06
   1.07602E+03   3.17000E+06   4.00000E+06
   1.07608E+03   3.43000E+06   4.17000E+06
   1.07615E+03   3.70000E+06   4.33000E+06
   1.07621E+03   3.99000E+06   4.50000E+06
   1.07627E+03   4.29000E+06   4.67000E+06
   1.07634E+03   4.59000E+06   4.83000E+06
   1.07640E+03   4.91000E+06   5.00000E+06
   1.07646E+03   5.24000E+06   5.17000E+06
   1.07653E+03   5.57000E+06   5.33000E+06
   1.07659E+03   5.92000E+06   5.50000E+06
   1.07665E+03   6.28000E+06   5.67000E+06
   1.07672E+03   6.65000E+06   5.83000E+06
   1.07678E+03   7.03000E+06   6.00000E+06
   1.07684E+03   7.42000E+06   6.17000E+06
   1.07691E+03   7.82000E+06   6.33000E+06
   1.07697E+03   8.23000E+06   6.50000E+06
   1.07703E+03   8.66000E+06   6.67000E+06
   1.07710E+03   9.09000E+06   6.83000E+06
   1.07716E+03   9.53000E+06   7.00000E+06
   1.07722E+03   9.99000E+06   7.17000E+06
   1.07729E+03   1.04000E+07   7.33000E+06
   1.07735E+03   1.09000E+07   7.50000E+06
   1.07741E+03   1.14000E+07   7.67000E+06
   1.07748E+03   1.19000E+07   7.83000E+06
   1.07754E+03   1.24000E+07   8.00000E+06
   1.07760E+03   1.29000E+07   8.17000E+06
   1.07767E+03   1.35000E+07   8.33000E+06
   1.07773E+03   1.40000E+07   8.50000E+06
   1.07779E+03   1.45000E+07   8.67000E+06
   1.07786E+03   1.51000E+07   8.83000E+06
   1.07792E+03   1.57000E+07   9.00000E+06
   1.07798E+03   1.63000E+07   9.17000E+06
   1.07805E+03   1.68000E+07   9.33000E+06
   1.07811E+03   1.74000E+07   9.50000E+06
   1.07817E+03   1.81000E+07   9.67000E+06
   1.07824E+03   1.87000E+07   9.83000E+06
   1.07830E+03   1.93000E+07   1.00000E+07
   1.07836E+03   2.00000E+07   1.02000E+07
   1.07843E+03   2.06000E+07   1.03000E+07
   1.07849E+03   2.13000E+07   1.05000E+07
   1.07855E+03   2.20000E+07   1.07000E+07
   1.07862E+03   2.26000E+07   1.08000E+07
   1.07868E+03   2.33000E+07   1.10000E+07
   1.07874E+03   2.40000E+07   1.12000E+07
   1.07881E+03   2.48000E+07   1.13000E+07
   1.07887E+03   2.55000E+07   1.15000E+07
   1.07893E+03   2.62000E+07   1.17000E+07
   1.07900E+03   2.70000E+07   1.18000E+07
   1.07906E+03   2.77000E+07   1.20000E+07
   1.07912E+03   2.85000E+07   1.22000E+07
   1.07919E+03   2.93000E+07   1.23000E+07
   1.07925E+03   3.01000E+07   1.25000E+07
   1.07931E+03   3.09000E+07   1.27000E+07
   1.07938E+03   3.17000E+07   1.28000E+07
   1.07944E+03   3.25000E+07   1.30000E+07
   1.07950E+03   3.34000E+07   1.32000E+07
   1.07957E+03   3.42000E+07   1.33000E+07
   1.07963E+03   3.51000E+07   1.35000E+07
   1.07969E+03   3.59000E+07   1.37000E+07
   1.07976E+03   3.68000E+07   1.38000E+07
   1.07982E+03   3.77000E+07   1.40000E+07
   1.07988E+03   3.86000E+07   1.42000E+07
   1.07995E+03   3.95000E+07   1.43000E+07
   1.08001E+03   4.04000E+07   1.45000E+07
   1.08007E+03   4.13000E+07   1.47000E+07
   1.08014E+03   4.23000E+07   1.48000E+07
   1.08020E+03   4.32000E+07   1.50000E+07
   1.08026E+03   4.42000E+07   1.52000E+07
   1.08033E+03   4.52000E+07   1.53000E+07
   1.08039E+03   4.61000E+07   1.55000E+07
   1.08045E+03   4.71000E+07   1.57000E+07
   1.08052E+03   4.81000E+07   1.58000E+07
   1.08058E+03   4.91000E+07   1.60000E+07
   1.08064E+03   5.02000E+07   1.62000E+07
   1.08071E+03   5.12000E+07   1.63000E+07
   1.08077E+03   5.22000E+07   1.65000E+07
   1.08083E+03   5.33000E+07   1.67000E+07
   1.08090E+03   5.44000E+07   1.68000E+07
   1.08096E+03   5.54000E+07   1.70000E+07
   1.08102E+03   5.65000E+07   1.72000E+07
   1.08109E+03   5.76000E+07   1.73000E+07
   1.08115E+03   5.87000E+07   1.75000E+07
   1.08121E+03   5.99000E+07   1.77000E+07
   1.08128E+03   6.10000E+07   1.78000E+07
   1.08134E+03   6.21000E+07   1.80000E+07
   1.08140E+03   6.33000E+07   1.82000E+07
   1.08147E+03   6.44000E+07   1.83000E+07
   1.08153E+03   6.56000E+07   1.85000E+07
   1.08159E+03   6.68000E+07   1.87000E+07
   1.08166E+03   6.80000E+07   1.88000E+07
   1.08172E+03   6.92000E+07   1.90000E+07
   1.08178E+03   7.04000E+07   1.92000E+07
   1.08185E+03   7.16000E+07   1.93000E+07
   1.08191E+03   7.29000E+07   1.95000E+07
   1.08197E+03   7.41000E+07   1.97000E+07
   1.08204E+03   7.54000E+07   1.98000E+07
   1.08210E+03   7.66000E+07   2.00000E+07
   1.08216E+03   7.79000E+07   2.02000E+07
   1.08223E+03   7.92000E+07   2.03000E+07
   1.08229E+03   8.05000E+07   2.05000E+07
   1.08235E+03   8.18000E+07   2.07000E+07
   1.08242E+03   8.31000E+07   2.08000E+07
   1.08248E+03   8.45000E+07   2.10000E+07
   1.08254E+03   8.58000E+07   2.12000E+07
   1.08261E+03   8.71000E+07   2.13000E+07
   1.08267E+03   8.85000E+07   2.15000E+07
   1.08273E+03   8.99000E+07   2.17000E+07
   1.08280E+03   9.13000E+07   2.18000E+07
   1.08286E+03   9.27000E+07   2.20000E+07
   1.08292E+03   9.41000E+07   2.22000E+07
   1.08299E+03   9.55000E+07   2.23000E+07
   1.08305E+03   9.69000E+07   2.25000E+07
   1.08311E+03   9.83000E+07   2.27000E+07
   1.08318E+03   9.98000E+07   2.28000E+07
   1.08324E+03   1.01000E+08   2.30000E+07
   1.08330E+03   1.03000E+08   2.32000E+07
   1.08337E+03   1.04000E+08   2.33000E+07
   1.08343E+03   1.06000E+08   2.35000E+07
   1.08349E+03   1.07000E+08   2.37000E+07
   1.08356E+03   1.09000E+08   2.38000E+07
   1.08362E+03   1.10000E+08   2.40000E+07
   1.08368E+03   1.12000E+08   2.42000E+07
   1.08375E+03   1.13000E+08   2.43000E+07
   1.08381E+03   1.15000E+08   2.45000E+07
   1.08387E+03   1.16000E+08   2.47000E+07
   1.08394E+03   1.18000E+08   2.48000E+07
   1.08400E+03   1.20000E+08   2.50000E+07



                      LAKE ID ARRAY FOR LAYER   1
 READING ON UNIT   33 WITH FORMAT: (20I4)              

                1           2           3           4           5           6           7           8           9          10
 ............................................................................................................................
   1            0           0           0           0           0           0           0           0           0           0
   2            0           0           0           0           0           0           0           0           0           0
   3            0           0           0           0           0           0           0           0           0           0
   4            0           0           0           0           1           0           0           0           0           0
   5            0           0           0           0           0           0           0           0           0           0
   6            0           0           0           0           0           0           0           0           0           0
   7            0           0           0           0           0           0           0           0           0           0
   8            0           0           0           0           0           0           0           0           0           0
   9            0           0           0           0           0           0           0           0           0           0
  10            0           0           0           0           0           0           0           0           0           0
  11            0           0           0           0           0           0           0           0           0           0
  12            0           0           0           0           0           0           0           0           0           0
  13            0           0           0           0           0           0           0           0           0           0
  14            0           0           0           0           0           0           0           0           0           0
  15            0           0           0           0           0           0           0           0           0           0



                      LAKE ID ARRAY FOR LAYER   2
 READING ON UNIT   33 WITH FORMAT: (20I4)              

                1           2           3           4           5           6           7           8           9          10
 ............................................................................................................................
   1            0           0           0           0           0           0           0           0           0           0
   2            0           0           0           0           0           0           0           0           0           0
   3            0           0           0           0           0           0           0           0           0           0
   4            0           0           0           0           0           0           0           0           0           0
   5            0           0           0           0           0           0           0           0           0           0
   6            0           0           0           0           0           0           0           0           0           0
   7            0           0           0           0           0           0           0           0           0           0
   8            0           0           0           0           0           0           0           0           0           0
   9            0           0           0           0           0           0           0           0           0           0
  10            0           0           0           0           0           0           0           0           0           0
  11            0           0           0           0           0           0           0           0           0           0
  12            0           0           0           0           0           0           0           0           0           0
  13            0           0           0           0           0           0           0           0           0           0
  14            0           0           0           0           0           0           0           0           0           0
  15            0           0           0           0           0           0           0           0           0           0





   LAKEBED LEAKANCE ARRAY =  5.000000E-02 FOR LAYER   1

   LAKEBED LEAKANCE ARRAY =  5.000000E-02 FOR LAYER   2

       LOCATIONS, LAKE #, INTERFACE TYPE FOR GRID CELLS ADJACENT TO LAKES:
     -----------------------------------------------------------------------
     LAYER #    ROW #    COLUMN #   LAKE #  INTERFACE TYPE  LAKEBED LEAKANCE
         1         4         4         1         2             5.000E-02
         1         3         5         1         3             5.000E-02
         2         4         5         1         6             5.000E-02
         1         5         5         1         4             5.000E-02
         1         4         6         1         1             5.000E-02

     NUMBER OF LAKE-AQUIFER CELL INTERFACES =     5

 NUMBER OF CONNECTED LAKE SYSTEMS IN SIMULATION IS   0

 LAKE       PRECIP     EVAP     RUNOFF   WITHDRAW   BOTTOM     AREA
----------------------------------------------------------------------
   1     0.000E+00 4.000E-08 0.000E+00  0.000E+00 1.074E+03 2.500E+07




         C               INTERFACE CONDUCTANCES BETWEEN LAKE AND AQUIFER CELLS
   L     O          (IF TYPE = 6, CONDUCTANCE (L^2/T) IS BETWEEN AQUIFER CELL AND OVERLYING LAKE CELL.)
   A     L  L  T    (IF TYPE = 1 TO 4, CONDUCTANCES ARE PER UNIT SATURATED THICKNESS (L/T).)
   Y  R  U  A  Y
   E  O  M  K  P                        LAKEBED      C O N D U C T A N C E S
   R  W  N  E  E     DELTA Y   DELTA X  LEAKANCE   LAKEBED   AQUIFER  COMBINED
 _______________________________________________________________________________
   1  4  4  1  2    5.00E+03  5.00E+03  5.00E-02  2.50E+02  6.00E-03  6.00E-03
   1  3  5  1  3    5.00E+03  5.00E+03  5.00E-02  2.50E+02  1.20E-03  1.20E-03
   2  4  5  1  6    5.00E+03  5.00E+03  5.00E-02  1.25E+06  9.42E+00  9.42E+00
   1  5  5  1  4    5.00E+03  5.00E+03  5.00E-02  2.50E+02  6.00E-03  6.00E-03
   1  4  6  1  1    5.00E+03  5.00E+03  5.00E-02  2.50E+02  6.00E-03  6.00E-03
      LAKE     INFLOWING STREAM SEGMENT
         1                  9

 MAXIMUM NUMBER OF STREAMS INFLOWING TO A LAKE IS    1

      LAKE     OUTFLOWING STREAM SEGMENT
         1                 10

 MAXIMUM NUMBER OF STREAMS OUTFLOWING FROM A LAKE IS    1

 
 SOLVING FOR HEAD 
                                                   Max.-Head-Change                         Max.-Flux-Residual
  Residual-Control   Outer-Iter.   Inner-Iter.     Column Row Layer    Maximum-Head-Change  Column Row Layer    Maximum-Flux-Residual          L2-NORM 
          0                 1           3            10   10     2      -0.1026957320E+02       3   13    2        -0.2143134765E+02      0.2863090023E+02
          0                 2           4             8    4     2      -0.4057149333E+01       4   13    2        -0.4174093370E+01      0.4696239373E+01
          0                 3           3             8    4     2       0.2386617543E+00       4   13    2        -0.1302856415E+01      0.1321769838E+01
          0                 4           2             4   13     2       0.1812558416E-01       4   13    2         0.1167399227E+00      0.1222781864E+00
          0                 5           1             1   13     2       0.9931298972E-03       4   13    2        -0.6103006849E-02      0.8335060414E-02

    ------------------------------------------------
       NWT REQUIRED            5 OUTER ITERATIONS 
       AND A TOTAL OF         13 INNER ITERATIONS.
    ------------------------------------------------

 OUTPUT CONTROL FOR STRESS PERIOD    1   TIME STEP    1
    PRINT BUDGET
    SAVE BUDGET

            WELLS   PERIOD    1   STEP   1
 WELL      1   LAYER   2   ROW     6   COL     4   RATE    -2.00000    
 WELL      2   LAYER   2   ROW     6   COL     5   RATE    -2.00000    
 WELL      3   LAYER   2   ROW     7   COL     4   RATE    -2.00000    
 WELL      4   LAYER   2   ROW     7   COL     5   RATE    -2.00000    
 WELL      5   LAYER   2   ROW     8   COL     4   RATE    -2.00000    
 WELL      6   LAYER   2   ROW     8   COL     5   RATE    -2.00000    
 WELL      7   LAYER   2   ROW     9   COL     4   RATE    -2.00000    
 WELL      8   LAYER   2   ROW     9   COL     5   RATE    -2.00000    
 WELL      9   LAYER   2   ROW    10   COL     4   RATE    -2.00000    
 WELL     10   LAYER   2   ROW    10   COL     5   RATE    -2.00000    

  HEAD DEP BOUNDS   PERIOD    1   STEP     1
 BOUNDARY      1   LAYER   2   ROW    13   COL     1   RATE   -0.286583    
 BOUNDARY      2   LAYER   2   ROW    14   COL     9   RATE    0.215996    



 STREAM LISTING     PERIOD      1   STEP        1

 LAYER ROW COL. STREAM  RCH.  FLOW INTO     FLOW TO   FLOW OUT OF   OVRLND.     DIRECT     STREAM       STREAM     STREAM     STREAM   STREAMBED  STREAMBED
                SEG.NO.  NO.  STRM. RCH.    AQUIFER    STRM. RCH.    RUNOFF     PRECIP       ET          HEAD       DEPTH      WIDTH   CONDCTNC.   GRADIENT

   2    1    1     1     1    2.8209E+01  2.0699E+00   2.6139E+01  0.000E+00  0.000E+00  0.000E+00  1.09426E+03  1.212E+00  1.348E+01  6.067E-01  1.137E+00
   2    2    2     1     2    2.6139E+01  3.7684E+00   2.2371E+01  0.000E+00  0.000E+00  0.000E+00  1.08923E+03  1.169E+00  1.291E+01  9.039E-01  1.390E+00
   2    3    3     1     3    2.2371E+01  3.0108E+00   1.9360E+01  0.000E+00  0.000E+00  0.000E+00  1.08353E+03  1.115E+00  1.219E+01  7.317E-01  1.372E+00
   2    3    4     1     4    1.9360E+01  2.5762E+00   1.6784E+01  0.000E+00  0.000E+00  0.000E+00  1.07848E+03  1.068E+00  1.141E+01  6.332E-01  1.356E+00
   2    4    5     2     1    6.7841E+00  2.7166E+00   4.0674E+00  0.000E+00  0.000E+00  0.000E+00  1.07242E+03  4.829E-01  1.200E+01  7.800E-01  1.161E+00
   2    5    6     2     2    4.0674E+00  2.0056E+00   2.0618E+00  0.000E+00  0.000E+00  0.000E+00  1.06685E+03  3.427E-01  1.200E+01  6.000E-01  1.114E+00
   2    6    6     2     3    2.0618E+00  1.9116E+00   1.5021E-01  0.000E+00  0.000E+00  0.000E+00  1.06198E+03  1.859E-01  1.200E+01  6.000E-01  1.062E+00
   2    7    6     2     4    1.5021E-01  1.5021E-01   0.0000E+00  0.000E+00  0.000E+00  0.000E+00  1.05709E+03  1.263E-02  1.200E+01  6.000E-01  1.004E+00
   2    8    6     2     5    0.0000E+00  0.0000E+00   0.0000E+00  0.000E+00  0.000E+00  0.000E+00  1.05236E+03  0.000E+00  1.200E+01  6.000E-01  1.000E+00
   2    3    5     3     1    1.0000E+01  2.8252E+00   7.1748E+00  0.000E+00  0.000E+00  0.000E+00  1.07555E+03  1.909E+00  9.636E+00  7.227E-01  1.955E+00
   2    3    6     3     2    7.1748E+00  2.4905E+00   4.6843E+00  0.000E+00  0.000E+00  0.000E+00  1.07264E+03  1.727E+00  8.909E+00  6.682E-01  1.864E+00
   2    3    7     3     3    4.6843E+00  1.9718E+00   2.7125E+00  0.000E+00  0.000E+00  0.000E+00  1.06987E+03  1.555E+00  8.218E+00  5.547E-01  1.777E+00
   2    4    8     3     4    2.7125E+00  2.2567E+00   4.5579E-01  0.000E+00  0.000E+00  0.000E+00  1.06682E+03  1.364E+00  7.455E+00  6.709E-01  1.682E+00
   2    5    8     3     5    4.5579E-01  4.5579E-01   0.0000E+00  0.000E+00  0.000E+00  0.000E+00  1.06362E+03  0.000E+00  6.655E+00  4.991E-01  1.582E+00
   2    6    8     3     6    0.0000E+00  0.0000E+00   0.0000E+00  0.000E+00  0.000E+00  0.000E+00  1.06055E+03  0.000E+00  6.145E+00  1.844E-01  1.000E+00
   2    5   10     4     1    1.0000E+01  9.0525E-01   9.0947E+00  0.000E+00  0.000E+00  0.000E+00  1.07835E+03  6.210E-01  1.000E+01  2.500E-01  1.207E+00
   2    5    9     4     2    9.0947E+00  1.7835E+00   7.3113E+00  0.000E+00  0.000E+00  0.000E+00  1.07148E+03  5.670E-01  1.000E+01  5.000E-01  1.189E+00
   2    6    8     4     3    7.3113E+00  1.2257E+00   6.0855E+00  0.000E+00  0.000E+00  0.000E+00  1.06368E+03  5.021E-01  1.000E+01  3.500E-01  1.167E+00
   2    6    8     5     1    6.0855E+00  1.4716E+00   4.6139E+00  0.000E+00  0.000E+00  0.000E+00  1.05854E+03  5.396E-01  1.039E+01  4.158E-01  1.180E+00
   2    7    7     5     2    4.6139E+00  1.4897E+00   3.1242E+00  0.000E+00  0.000E+00  0.000E+00  1.05398E+03  4.817E-01  8.557E+00  4.279E-01  1.161E+00
   2    8    7     5     3    3.1242E+00  8.2855E-01   2.2957E+00  0.000E+00  0.000E+00  0.000E+00  1.04968E+03  4.253E-01  6.911E+00  2.419E-01  1.142E+00
   2    8    6     5     4    2.2957E+00  4.9455E-01   1.8011E+00  0.000E+00  0.000E+00  0.000E+00  1.04664E+03  3.856E-01  5.843E+00  1.461E-01  1.129E+00
   2    9    6     6     1    1.8011E+00  1.8011E+00   0.0000E+00  0.000E+00  0.000E+00  0.000E+00  1.04278E+03  5.669E-02  1.200E+01  6.000E-01  1.019E+00
   2   10    7     6     2    0.0000E+00  0.0000E+00   0.0000E+00  0.000E+00  0.000E+00  0.000E+00  1.03818E+03  0.000E+00  1.200E+01  6.000E-01  1.000E+00
   2   11    7     6     3    0.0000E+00  0.0000E+00   0.0000E+00  0.000E+00  0.000E+00  0.000E+00  1.03364E+03  0.000E+00  1.200E+01  6.000E-01  1.000E+00
   2   12    7     6     4    0.0000E+00  0.0000E+00   0.0000E+00  0.000E+00  0.000E+00  0.000E+00  1.02909E+03  0.000E+00  1.200E+01  6.000E-01  5.998E-01
   2   13    7     6     5    0.0000E+00 -7.2162E-01   7.2162E-01  0.000E+00  0.000E+00  0.000E+00  1.02601E+03  9.601E-02  1.200E+01  2.400E-01 -1.002E+00
   2   14    9     7     1    1.5000E+02  3.0633E+00   1.4694E+02  0.000E+00  0.000E+00  0.000E+00  1.03986E+03  2.283E+00  5.527E+01  5.591E+00  1.826E-01
   2   13    8     7     2    1.4694E+02  4.2102E+00   1.4273E+02  0.000E+00  0.000E+00  0.000E+00  1.03476E+03  2.264E+00  5.519E+01  6.139E+00  2.286E-01
   2   13    7     7     3    1.4273E+02  3.6212E+00   1.3911E+02  0.000E+00  0.000E+00  0.000E+00  1.02966E+03  2.243E+00  5.509E+01  5.571E+00  2.167E-01
   2   13    6     8     1    1.3983E+02  1.7240E+00   1.3810E+02  0.000E+00  0.000E+00  0.000E+00  1.02461E+03  2.737E+00  3.969E+01  4.045E+00  1.421E-01
   2   13    5     8     2    1.3810E+02 -1.4658E+00   1.3957E+02  0.000E+00  0.000E+00  0.000E+00  1.01836E+03  2.736E+00  3.968E+01  4.043E+00 -1.208E-01
   2   13    4     8     3    1.3957E+02 -4.5010E+00   1.4407E+02  0.000E+00  0.000E+00  0.000E+00  1.01213E+03  2.758E+00  3.999E+01  4.076E+00 -3.681E-01
   2   13    3     8     4    1.4407E+02 -5.2628E+00   1.4933E+02  0.000E+00  0.000E+00  0.000E+00  1.00592E+03  2.793E+00  4.051E+01  4.128E+00 -4.250E-01
   2   13    2     8     5    1.4933E+02 -3.2311E+00   1.5256E+02  0.000E+00  0.000E+00  0.000E+00  9.99698E+02  2.824E+00  4.094E+01  4.172E+00 -2.582E-01
   2   13    1     8     6    1.5256E+02 -2.0778E+00   1.5464E+02  0.000E+00  0.000E+00  0.000E+00  9.94717E+02  2.842E+00  4.121E+01  2.520E+00 -2.749E-01
   2    4    5     9     1    0.0000E+00  0.0000E+00   0.0000E+00  0.000E+00  0.000E+00  0.000E+00  1.06000E+03  0.000E+00  2.000E+01  2.000E-03  1.000E+00
   2    4    5    10     1    0.0000E+00  0.0000E+00   0.0000E+00  0.000E+00  0.000E+00  0.000E+00  1.08000E+03  0.000E+00  2.000E+01  2.000E-03  1.000E+00



 ..........LAKE  1 IS DRY..........

     SECTIONS OF THE LAKE BOTTOM HAVE BECOME DRY.  THE DRYSECTIONS
     LIE ABOVE THE FOLLOWING  1 AQUIFER CELLS (LAYER,ROW,COLUMN):
     (  2,  4,  5)  (

 PERIOD     1     TIME STEP     1     TIME STEP LENGTH  2.6280E+06
 PERIOD TIME  2.6280E+06     TOTAL SIMULATION TIME  2.6280E+06


                 HYDROLOGIC BUDGET SUMMARIES FOR SIMULATED LAKES
     (ALL FLUID FLUXES ARE VOLUMES ADDED TO THE LAKE DURING PRESENT TIME STEP)
     ----------------------------------------------------------------------------------------
 LAKE    STAGE         VOLUME     VOL. CHANGE      PRECIP     EVAPORATION    SPECIFIED RUNOFF     COMPUTED RUNOFF    TOTAL RUNOFF
   1  1.074500E+03  0.000000E+00     N/A (SS)   0.000000E+00  0.000000E+00   0.000000E+00          0.000000E+00      0.000000E+00

            GROUND WATER            SURFACE WATER        WATER          UZF INFIL.
 LAKE    INFLOW     OUTFLOW      INFLOW     OUTFLOW       USE        FROM LAKE
   1  0.0000E+00  0.0000E+00  0.0000E+00  0.0000E+00  0.0000E+00       0.0000E+00

      CONNECTED LAKE   TIME-STEP         STAGE-CHANGE          PERCENT
 LAKE    INFLUX      SURFACE AREA   TIME STEP  CUMULATIVE    DISCREPANCY
   1   0.0000E+00     0.0000E+00     N/A (SS)   N/A (SS)        0.000
 --------------------------------------------------------------------------------



            CUMULATIVE HYDROLOGIC BUDGET SUMMARIES FOR SIMULATED LAKES
     (ALL FLUID FLUXES ARE SUMS OF VOLUMES ADDED TO THE LAKE SINCE INITIAL TIME)
     ---------------------------------------------------------------------------
 LAKE       PRECIP       EVAP     SPECIFIED RUNOFF   COMPUTED RUNOFF   TOTAL RUNOFF
   1     0.0000E+00  0.0000E+00       0.0000E+00       0.0000E+00       0.0000E+00

            GROUND WATER            SURFACE WATER       UZF INFIL.
 LAKE    INFLOW     OUTFLOW      INFLOW     OUTFLOW     FROM LAKE
   1  0.0000E+00  0.0000E+00  0.0000E+00  0.0000E+00    0.0000E+00

         WATER    CONNECTED LAKE   CHANGE       PERCENT
 LAKE     USE         INFLUX       IN VOL.    DISCREPANCY
   1   0.0000E+00   0.0000E+00    N/A (SS)       0.000
 --------------------------------------------------------------------------------

 UBDSV3 SAVING "           GW ET" ON UNIT  61 AT TIME STEP     1, STRESS PERIOD   1
 UBDSV3 SAVING "    UZF RECHARGE" ON UNIT  61 AT TIME STEP     1, STRESS PERIOD   1
 UBDSV3 SAVING " SURFACE LEAKAGE" ON UNIT  61 AT TIME STEP     1, STRESS PERIOD   1
 UBDSV3 SAVING "       HORT+DUNN" ON UNIT  61 AT TIME STEP     1, STRESS PERIOD   1
 UBDSV3 SAVING "  STORAGE CHANGE" ON UNIT  61 AT TIME STEP     1, STRESS PERIOD   1


UNSATURATED ZONE PACKAGE VOLUMETRIC BUDGET FOR  TIME STEP     1 STRESS PERIOD    1
  ------------------------------------------------------------------------------



     CUMULATIVE VOLUMES      L**3       RATES FOR THIS TIME STEP      L**3/T
     ------------------                 ------------------------

           IN:                                      IN:
           ---                                      ---
        INFILTRATION =     2220660.0000          INFILTRATION =           0.8450

          OUT:                                     OUT:
          ----                                     ----
              UZF ET =       0.0000E+00                UZF ET =       0.0000E+00
        UZF RECHARGE =     2220660.0000          UZF RECHARGE =           0.8450

            IN - OUT =       0.0000E+00              IN - OUT =       0.0000E+00

          STORAGE:                                 STORAGE:
          --------                                 --------
      STORAGE CHANGE =       0.0000E+00        STORAGE CHANGE =       0.0000E+00

 PERCENT DISCREPANCY IS DIFFERENCE BETWEEN IN-OUT MINUS CHANGE IN STORAGE
 DIVIDED BY THE AVERAGE OF IN AND OUT TIMES 100

 PERCENT DISCREPANCY =           0.00     PERCENT DISCREPANCY =           0.00






1
  VOLUMETRIC BUDGET FOR ENTIRE MODEL AT END OF TIME STEP    1, STRESS PERIOD   1
  ------------------------------------------------------------------------------

     CUMULATIVE VOLUMES      L**3       RATES FOR THIS TIME STEP      L**3/T
     ------------------                 ------------------------

           IN:                                      IN:
           ---                                      ---
             STORAGE =           0.0000               STORAGE =           0.0000
       CONSTANT HEAD =           0.0000         CONSTANT HEAD =           0.0000
               WELLS =           0.0000                 WELLS =           0.0000
     HEAD DEP BOUNDS =      567638.0625       HEAD DEP BOUNDS =           0.2160
      STREAM LEAKAGE =   133575960.0000        STREAM LEAKAGE =          50.8280
       LAKE  SEEPAGE =           0.0000         LAKE  SEEPAGE =           0.0000
        UZF RECHARGE =     2220658.7500          UZF RECHARGE =           0.8450
               GW ET =           0.0000                 GW ET =           0.0000
     SURFACE LEAKAGE =           0.0000       SURFACE LEAKAGE =           0.0000

            TOTAL IN =   136364256.0000              TOTAL IN =          51.8890

          OUT:                                     OUT:
          ----                                     ----
             STORAGE =           0.0000               STORAGE =           0.0000
       CONSTANT HEAD =           0.0000         CONSTANT HEAD =           0.0000
               WELLS =    52560000.0000                 WELLS =          20.0000
     HEAD DEP BOUNDS =      753140.6875       HEAD DEP BOUNDS =           0.2866
      STREAM LEAKAGE =    45359796.0000        STREAM LEAKAGE =          17.2602
       LAKE  SEEPAGE =           0.0000         LAKE  SEEPAGE =           0.0000
        UZF RECHARGE =           0.0000          UZF RECHARGE =           0.0000
               GW ET =    37692156.0000                 GW ET =          14.3425
     SURFACE LEAKAGE =           0.0000       SURFACE LEAKAGE =           0.0000

           TOTAL OUT =   136365088.0000             TOTAL OUT =          51.8893

            IN - OUT =        -832.0000              IN - OUT =      -3.1662E-04

 PERCENT DISCREPANCY =          -0.00     PERCENT DISCREPANCY =          -0.00






         TIME SUMMARY AT END OF TIME STEP    1 IN STRESS PERIOD    1
                    SECONDS     MINUTES      HOURS       DAYS        YEARS
                    -----------------------------------------------------------
   TIME STEP LENGTH 2.62800E+06  43800.      730.00      30.417     8.32763E-02
 STRESS PERIOD TIME 2.62800E+06  43800.      730.00      30.417     8.32763E-02
         TOTAL TIME 2.62800E+06  43800.      730.00      30.417     8.32763E-02
1
1
                            STRESS PERIOD NO.    2, LENGTH =   2628000.    
                            -----------------------------------------------

                              NUMBER OF TIME STEPS =    15

                               MULTIPLIER FOR DELT =     1.000

                            INITIAL TIME STEP SIZE =   175200.0    

 WELL NO.  LAYER   ROW   COL   STRESS RATE         
 --------------------------------------------------
      1      2      6      4      -2.000    
      2      2      6      5      -2.000    
      3      2      7      4      -2.000    
      4      2      7      5      -2.000    
      5      2      8      4      -2.000    
      6      2      8      5      -2.000    
      7      2      9      4      -2.000    
      8      2      9      5      -2.000    
      9      2     10      4      -2.000    
     10      2     10      5      -2.000    

     10 WELLS

 REUSING NON-PARAMETER GHB CELLS FROM LAST STRESS PERIOD

      2 GHB CELLS

 REUSING STREAM SEGMENT DATA FROM LAST STRESS PERIOD



            AREAL INFILTRATION RATE
 READING ON UNIT   19 WITH FORMAT: (10F4.0)            

            1           2           3           4           5           6           7           8           9          10
 ........................................................................................................................
   1   8.0000E-09  1.6000E-08   0.000       0.000       0.000       0.000       0.000       0.000       0.000       0.000    
   2   1.6000E-08  8.0000E-09  1.6000E-08   0.000       0.000      6.4000E-08  6.4000E-08  4.0000E-08   0.000       0.000    
   3    0.000      4.0000E-08  8.0000E-09  8.0000E-09  6.4000E-08  6.4000E-08  4.0000E-08  4.0000E-08   0.000       0.000    
   4   6.4000E-08  4.0000E-08  8.0000E-09  8.0000E-09  8.0000E-09  8.0000E-09  8.0000E-09  8.0000E-09  1.6000E-08   0.000    
   5   6.4000E-08  4.0000E-08  8.0000E-09  8.0000E-09  8.0000E-09  8.0000E-09  8.0000E-09  8.0000E-09  8.0000E-09  8.0000E-09
   6   6.4000E-08  4.0000E-08  4.0000E-08  1.6000E-08  1.6000E-08  8.0000E-09  8.0000E-09  8.0000E-09  8.0000E-09  4.0000E-08
   7   6.4000E-08  4.0000E-08  4.0000E-08  1.6000E-08  1.6000E-08  8.0000E-09  8.0000E-09  1.6000E-08  1.6000E-08   0.000    
   8    0.000      4.0000E-08  4.0000E-08  1.6000E-08  1.6000E-08  8.0000E-09  8.0000E-09  1.6000E-08  4.0000E-08   0.000    
   9    0.000      4.0000E-08  4.0000E-08  1.6000E-08  1.6000E-08  8.0000E-09  8.0000E-09  1.6000E-08  4.0000E-08   0.000    
  10    0.000      4.0000E-08  4.0000E-08  1.6000E-08  1.6000E-08  8.0000E-09  8.0000E-09  1.6000E-08  4.0000E-08  6.4000E-08
  11    0.000      8.0000E-09  8.0000E-09  8.0000E-09  8.0000E-09  8.0000E-09  8.0000E-09  1.6000E-08  4.0000E-08   0.000    
  12   8.0000E-09  8.0000E-09  8.0000E-09  8.0000E-09  8.0000E-09  8.0000E-09  8.0000E-09  8.0000E-09  1.6000E-08   0.000    
  13   8.0000E-09  8.0000E-09  1.6000E-08  1.6000E-08  1.6000E-08  1.6000E-08  1.6000E-08  8.0000E-09  8.0000E-09   0.000    
  14    0.000      1.6000E-08  4.0000E-08  4.0000E-08  4.0000E-08  4.0000E-08  4.0000E-08  1.6000E-08  8.0000E-09   0.000    
  15    0.000       0.000      6.4000E-08  6.4000E-08  6.4000E-08  6.4000E-08   0.000       0.000       0.000       0.000    

                  ET RATE =  5.000000E-08

 USING ET EXTINCTION DEPTH FROM PREVIOUS STRESS PERIOD. CURRENT PERIOD IS:       2

 USING EXTINCTION WATER CONTENT FROM PREVIOUS STRESS PERIOD. CURRENT PERIOD IS:       2




 If any subsequent steady-state stress periods, min. and max. stages for each lake will be read in Record 9a.




 REUSING LAKE CONFIGURATION DATA FROM LAST STRESS PERIOD


 LAKE       PRECIP     EVAP     RUNOFF   WITHDRAW   BOTTOM     AREA
----------------------------------------------------------------------
   1     0.000E+00 4.000E-08 0.000E+00  0.000E+00 1.074E+03 2.500E+07




         C               INTERFACE CONDUCTANCES BETWEEN LAKE AND AQUIFER CELLS
   L     O          (IF TYPE = 6, CONDUCTANCE (L^2/T) IS BETWEEN AQUIFER CELL AND OVERLYING LAKE CELL.)
   A     L  L  T    (IF TYPE = 1 TO 4, CONDUCTANCES ARE PER UNIT SATURATED THICKNESS (L/T).)
   Y  R  U  A  Y
   E  O  M  K  P                        LAKEBED      C O N D U C T A N C E S
   R  W  N  E  E     DELTA Y   DELTA X  LEAKANCE   LAKEBED   AQUIFER  COMBINED
 _______________________________________________________________________________
   1  4  4  1  2    5.00E+03  5.00E+03  5.00E-02  2.50E+02  6.00E-03  6.00E-03
   1  3  5  1  3    5.00E+03  5.00E+03  5.00E-02  2.50E+02  1.20E-03  1.20E-03
   2  4  5  1  6    5.00E+03  5.00E+03  5.00E-02  1.25E+06  9.42E+00  9.42E+00
   1  5  5  1  4    5.00E+03  5.00E+03  5.00E-02  2.50E+02  6.00E-03  6.00E-03
   1  4  6  1  1    5.00E+03  5.00E+03  5.00E-02  2.50E+02  6.00E-03  6.00E-03
      LAKE     INFLOWING STREAM SEGMENT
         1                  9

 MAXIMUM NUMBER OF STREAMS INFLOWING TO A LAKE IS    1

      LAKE     OUTFLOWING STREAM SEGMENT
         1                 10

 MAXIMUM NUMBER OF STREAMS OUTFLOWING FROM A LAKE IS    1

 
 SOLVING FOR HEAD 
                                                   Max.-Head-Change                         Max.-Flux-Residual
  Residual-Control   Outer-Iter.   Inner-Iter.     Column Row Layer    Maximum-Head-Change  Column Row Layer    Maximum-Flux-Residual          L2-NORM 
          0                 1           2             8   12     2       0.6663137183E-01       6    5    2        -0.1952241606E+01      0.5743133797E+01
          0                 2           2             6    5     2       0.4497892488E-02       6    5    2         0.1372818928E+00      0.2033205844E+00
          0                 3           1             6    5     2      -0.2599361412E-03       6    5    2        -0.8238241907E-02      0.1139929602E-01

    ------------------------------------------------
       NWT REQUIRED            3 OUTER ITERATIONS 
       AND A TOTAL OF          5 INNER ITERATIONS.
    ------------------------------------------------

 OUTPUT CONTROL WAS SPECIFIED FOR A NONEXISTENT TIME STEP
 OR OUTPUT CONTROL DATA ARE NOT ENTERED IN ASCENDING ORDER
 OUTPUT CONTROL STRESS PERIOD    1   TIME STEP    5
 MODEL STRESS PERIOD    2   TIME STEP    1
 APPLYING THE SPECIFIED OUTPUT CONTROL TO THE CURRENT TIME STEP

 OUTPUT CONTROL FOR STRESS PERIOD    2   TIME STEP    1
    PRINT BUDGET
    SAVE BUDGET

            WELLS   PERIOD    2   STEP   1
 WELL      1   LAYER   2   ROW     6   COL     4   RATE    -2.00000    
 WELL      2   LAYER   2   ROW     6   COL     5   RATE    -2.00000    
 WELL      3   LAYER   2   ROW     7   COL     4   RATE    -2.00000    
 WELL      4   LAYER   2   ROW     7   COL     5   RATE    -2.00000    
 WELL      5   LAYER   2   ROW     8   COL     4   RATE    -2.00000    
 WELL      6   LAYER   2   ROW     8   COL     5   RATE    -2.00000    
 WELL      7   LAYER   2   ROW     9   COL     4   RATE    -2.00000    
 WELL      8   LAYER   2   ROW     9   COL     5   RATE    -2.00000    
 WELL      9   LAYER   2   ROW    10   COL     4   RATE    -2.00000    
 WELL     10   LAYER   2   ROW    10   COL     5   RATE    -2.00000    

  HEAD DEP BOUNDS   PERIOD    2   STEP     1
 BOUNDARY      1   LAYER   2   ROW    13   COL     1   RATE   -0.286756    
 BOUNDARY      2   LAYER   2   ROW    14   COL     9   RATE    0.215638    



 STREAM LISTING     PERIOD      2   STEP        1

 LAYER ROW COL. STREAM  RCH.  FLOW INTO     FLOW TO   FLOW OUT OF   OVRLND.     DIRECT     STREAM       STREAM     STREAM     STREAM   STREAMBED  STREAMBED
                SEG.NO.  NO.  STRM. RCH.    AQUIFER    STRM. RCH.    RUNOFF     PRECIP       ET          HEAD       DEPTH      WIDTH   CONDCTNC.   GRADIENT

   2    1    1     1     1    2.2000E+01  1.8299E+00   2.0170E+01  0.000E+00  0.000E+00  0.000E+00  1.09417E+03  1.118E+00  1.224E+01  5.510E-01  1.107E+00
   2    2    2     1     2    2.0170E+01  3.2954E+00   1.6875E+01  0.000E+00  0.000E+00  0.000E+00  1.08913E+03  1.076E+00  1.155E+01  8.085E-01  1.359E+00
   2    3    3     1     3    1.6875E+01  2.5597E+00   1.4315E+01  0.000E+00  0.000E+00  0.000E+00  1.08344E+03  1.024E+00  1.060E+01  6.362E-01  1.341E+00
   2    3    4     1     4    1.4315E+01  2.1565E+00   1.2158E+01  0.000E+00  0.000E+00  0.000E+00  1.07838E+03  9.761E-01  9.772E+00  5.424E-01  1.325E+00
   2    4    5     2     1    2.1585E+00  2.1585E+00   0.0000E+00  0.000E+00  0.000E+00  0.000E+00  1.07200E+03  6.249E-02  1.200E+01  7.800E-01  1.021E+00
   2    5    6     2     2    0.0000E+00  0.0000E+00   0.0000E+00  0.000E+00  0.000E+00  0.000E+00  1.06651E+03  0.000E+00  1.200E+01  6.000E-01  1.000E+00
   2    6    6     2     3    0.0000E+00  0.0000E+00   0.0000E+00  0.000E+00  0.000E+00  0.000E+00  1.06179E+03  0.000E+00  1.200E+01  6.000E-01  1.000E+00
   2    7    6     2     4    0.0000E+00  0.0000E+00   0.0000E+00  0.000E+00  0.000E+00  0.000E+00  1.05708E+03  0.000E+00  1.200E+01  6.000E-01  1.000E+00
   2    8    6     2     5    0.0000E+00  0.0000E+00   0.0000E+00  0.000E+00  0.000E+00  0.000E+00  1.05236E+03  0.000E+00  1.200E+01  6.000E-01  1.000E+00
   2    3    5     3     1    1.0000E+01  2.8252E+00   7.1748E+00  0.000E+00  0.000E+00  0.000E+00  1.07555E+03  1.909E+00  9.636E+00  7.227E-01  1.955E+00
   2    3    6     3     2    7.1748E+00  2.4905E+00   4.6843E+00  0.000E+00  0.000E+00  0.000E+00  1.07264E+03  1.727E+00  8.909E+00  6.682E-01  1.864E+00
   2    3    7     3     3    4.6843E+00  1.9718E+00   2.7125E+00  0.000E+00  0.000E+00  0.000E+00  1.06987E+03  1.555E+00  8.218E+00  5.547E-01  1.777E+00
   2    4    8     3     4    2.7125E+00  2.2567E+00   4.5579E-01  0.000E+00  0.000E+00  0.000E+00  1.06682E+03  1.364E+00  7.455E+00  6.709E-01  1.682E+00
   2    5    8     3     5    4.5579E-01  4.5579E-01   0.0000E+00  0.000E+00  0.000E+00  0.000E+00  1.06362E+03  0.000E+00  6.655E+00  4.991E-01  1.582E+00
   2    6    8     3     6    0.0000E+00  0.0000E+00   0.0000E+00  0.000E+00  0.000E+00  0.000E+00  1.06055E+03  0.000E+00  6.145E+00  1.844E-01  1.000E+00
   2    5   10     4     1    1.0000E+01  9.0525E-01   9.0947E+00  0.000E+00  0.000E+00  0.000E+00  1.07835E+03  6.210E-01  1.000E+01  2.500E-01  1.207E+00
   2    5    9     4     2    9.0947E+00  1.7835E+00   7.3113E+00  0.000E+00  0.000E+00  0.000E+00  1.07148E+03  5.670E-01  1.000E+01  5.000E-01  1.189E+00
   2    6    8     4     3    7.3113E+00  1.2257E+00   6.0855E+00  0.000E+00  0.000E+00  0.000E+00  1.06368E+03  5.021E-01  1.000E+01  3.500E-01  1.167E+00
   2    6    8     5     1    6.0855E+00  1.4716E+00   4.6139E+00  0.000E+00  0.000E+00  0.000E+00  1.05854E+03  5.396E-01  1.039E+01  4.158E-01  1.180E+00
   2    7    7     5     2    4.6139E+00  1.4897E+00   3.1242E+00  0.000E+00  0.000E+00  0.000E+00  1.05398E+03  4.817E-01  8.557E+00  4.279E-01  1.161E+00
   2    8    7     5     3    3.1242E+00  8.2855E-01   2.2957E+00  0.000E+00  0.000E+00  0.000E+00  1.04968E+03  4.253E-01  6.911E+00  2.419E-01  1.142E+00
   2    8    6     5     4    2.2957E+00  4.9455E-01   1.8011E+00  0.000E+00  0.000E+00  0.000E+00  1.04664E+03  3.856E-01  5.843E+00  1.461E-01  1.129E+00
   2    9    6     6     1    1.8011E+00  1.8011E+00   0.0000E+00  0.000E+00  0.000E+00  0.000E+00  1.04278E+03  5.669E-02  1.200E+01  6.000E-01  1.019E+00
   2   10    7     6     2    0.0000E+00  0.0000E+00   0.0000E+00  0.000E+00  0.000E+00  0.000E+00  1.03818E+03  0.000E+00  1.200E+01  6.000E-01  1.000E+00
   2   11    7     6     3    0.0000E+00  0.0000E+00   0.0000E+00  0.000E+00  0.000E+00  0.000E+00  1.03364E+03  0.000E+00  1.200E+01  6.000E-01  1.000E+00
   2   12    7     6     4    0.0000E+00  0.0000E+00   0.0000E+00  0.000E+00  0.000E+00  0.000E+00  1.02909E+03  0.000E+00  1.200E+01  6.000E-01  5.960E-01
   2   13    7     6     5    0.0000E+00 -7.2331E-01   7.2331E-01  0.000E+00  0.000E+00  0.000E+00  1.02601E+03  9.615E-02  1.200E+01  2.400E-01 -1.005E+00
   2   14    9     7     1    1.5000E+02  3.0115E+00   1.4699E+02  0.000E+00  0.000E+00  0.000E+00  1.03986E+03  2.283E+00  5.527E+01  5.591E+00  1.795E-01
   2   13    8     7     2    1.4699E+02  4.1590E+00   1.4283E+02  0.000E+00  0.000E+00  0.000E+00  1.03476E+03  2.264E+00  5.519E+01  6.140E+00  2.258E-01
   2   13    7     7     3    1.4283E+02  3.5851E+00   1.3924E+02  0.000E+00  0.000E+00  0.000E+00  1.02966E+03  2.243E+00  5.509E+01  5.571E+00  2.145E-01
   2   13    6     8     1    1.3997E+02  1.6993E+00   1.3827E+02  0.000E+00  0.000E+00  0.000E+00  1.02461E+03  2.738E+00  3.971E+01  4.046E+00  1.400E-01
   2   13    5     8     2    1.3827E+02 -1.4786E+00   1.3975E+02  0.000E+00  0.000E+00  0.000E+00  1.01836E+03  2.738E+00  3.969E+01  4.045E+00 -1.218E-01
   2   13    4     8     3    1.3975E+02 -4.5152E+00   1.4426E+02  0.000E+00  0.000E+00  0.000E+00  1.01213E+03  2.760E+00  4.001E+01  4.078E+00 -3.691E-01
   2   13    3     8     4    1.4426E+02 -5.2724E+00   1.4953E+02  0.000E+00  0.000E+00  0.000E+00  1.00592E+03  2.795E+00  4.053E+01  4.130E+00 -4.256E-01
   2   13    2     8     5    1.4953E+02 -3.2611E+00   1.5280E+02  0.000E+00  0.000E+00  0.000E+00  9.99700E+02  2.825E+00  4.096E+01  4.174E+00 -2.604E-01
   2   13    1     8     6    1.5280E+02 -2.0863E+00   1.5488E+02  0.000E+00  0.000E+00  0.000E+00  9.94719E+02  2.844E+00  4.123E+01  2.521E+00 -2.758E-01
   2    4    5     9     1    0.0000E+00  0.0000E+00   0.0000E+00  0.000E+00  0.000E+00  0.000E+00  1.06000E+03  0.000E+00  2.000E+01  2.000E-03  1.000E+00
   2    4    5    10     1    0.0000E+00  0.0000E+00   0.0000E+00  0.000E+00  0.000E+00  0.000E+00  1.08000E+03  0.000E+00  2.000E+01  2.000E-03  1.000E+00



 ..........LAKE  1 IS DRY..........

     SECTIONS OF THE LAKE BOTTOM HAVE BECOME DRY.  THE DRYSECTIONS
     LIE ABOVE THE FOLLOWING  1 AQUIFER CELLS (LAYER,ROW,COLUMN):
     (  2,  4,  5)  (

 PERIOD     2     TIME STEP     1     TIME STEP LENGTH  1.7520E+05
 PERIOD TIME  1.7520E+05     TOTAL SIMULATION TIME  2.8032E+06


                 HYDROLOGIC BUDGET SUMMARIES FOR SIMULATED LAKES
     (ALL FLUID FLUXES ARE VOLUMES ADDED TO THE LAKE DURING PRESENT TIME STEP)
     ----------------------------------------------------------------------------------------
 LAKE    STAGE         VOLUME     VOL. CHANGE      PRECIP     EVAPORATION    SPECIFIED RUNOFF     COMPUTED RUNOFF    TOTAL RUNOFF
   1  1.074500E+03  0.000000E+00  0.000000E+00  0.000000E+00  0.000000E+00   0.000000E+00          0.000000E+00      0.000000E+00

            GROUND WATER            SURFACE WATER        WATER          UZF INFIL.
 LAKE    INFLOW     OUTFLOW      INFLOW     OUTFLOW       USE        FROM LAKE
   1  0.0000E+00  0.0000E+00  0.0000E+00  0.0000E+00  0.0000E+00       0.0000E+00

      CONNECTED LAKE   TIME-STEP         STAGE-CHANGE          PERCENT
 LAKE    INFLUX      SURFACE AREA   TIME STEP  CUMULATIVE    DISCREPANCY
   1   0.0000E+00     0.0000E+00   0.0000E+00  0.0000E+00       0.000
 --------------------------------------------------------------------------------



            CUMULATIVE HYDROLOGIC BUDGET SUMMARIES FOR SIMULATED LAKES
     (ALL FLUID FLUXES ARE SUMS OF VOLUMES ADDED TO THE LAKE SINCE INITIAL TIME)
     ---------------------------------------------------------------------------
 LAKE       PRECIP       EVAP     SPECIFIED RUNOFF   COMPUTED RUNOFF   TOTAL RUNOFF
   1     0.0000E+00  0.0000E+00       0.0000E+00       0.0000E+00       0.0000E+00

            GROUND WATER            SURFACE WATER       UZF INFIL.
 LAKE    INFLOW     OUTFLOW      INFLOW     OUTFLOW     FROM LAKE
   1  0.0000E+00  0.0000E+00  0.0000E+00  0.0000E+00    0.0000E+00

         WATER    CONNECTED LAKE   CHANGE       PERCENT
 LAKE     USE         INFLUX       IN VOL.    DISCREPANCY
   1   0.0000E+00   0.0000E+00   0.0000E+00      0.000
 --------------------------------------------------------------------------------

 UBDSV3 SAVING "           GW ET" ON UNIT  61 AT TIME STEP     1, STRESS PERIOD   2
 UBDSV3 SAVING "    UZF RECHARGE" ON UNIT  61 AT TIME STEP     1, STRESS PERIOD   2
 UBDSV3 SAVING " SURFACE LEAKAGE" ON UNIT  61 AT TIME STEP     1, STRESS PERIOD   2
 UBDSV3 SAVING "       HORT+DUNN" ON UNIT  61 AT TIME STEP     1, STRESS PERIOD   2
 UBDSV3 SAVING "  STORAGE CHANGE" ON UNIT  61 AT TIME STEP     1, STRESS PERIOD   2


UNSATURATED ZONE PACKAGE VOLUMETRIC BUDGET FOR  TIME STEP     1 STRESS PERIOD    2
  ------------------------------------------------------------------------------



     CUMULATIVE VOLUMES      L**3       RATES FOR THIS TIME STEP      L**3/T
     ------------------                 ------------------------

           IN:                                      IN:
           ---                                      ---
        INFILTRATION =    14064180.0000          INFILTRATION =          67.6000

          OUT:                                     OUT:
          ----                                     ----
              UZF ET =    22891432.3401                UZF ET =         130.6589
        UZF RECHARGE =    10019249.7080          UZF RECHARGE =          44.5125

            IN - OUT =   -18846502.0481              IN - OUT =        -107.5714

          STORAGE:                                 STORAGE:
          --------                                 --------
      STORAGE CHANGE =   -18841782.1208        STORAGE CHANGE =        -107.5444

 PERCENT DISCREPANCY IS DIFFERENCE BETWEEN IN-OUT MINUS CHANGE IN STORAGE
 DIVIDED BY THE AVERAGE OF IN AND OUT TIMES 100

 PERCENT DISCREPANCY =          -0.00     PERCENT DISCREPANCY =          -0.02






1
  VOLUMETRIC BUDGET FOR ENTIRE MODEL AT END OF TIME STEP    1, STRESS PERIOD   2
  ------------------------------------------------------------------------------

     CUMULATIVE VOLUMES      L**3       RATES FOR THIS TIME STEP      L**3/T
     ------------------                 ------------------------

           IN:                                      IN:
           ---                                      ---
             STORAGE =      937158.0000               STORAGE =           5.3491
       CONSTANT HEAD =           0.0000         CONSTANT HEAD =           0.0000
               WELLS =           0.0000                 WELLS =           0.0000
     HEAD DEP BOUNDS =      605417.9375       HEAD DEP BOUNDS =           0.2156
      STREAM LEAKAGE =   141364448.0000        STREAM LEAKAGE =          44.4548
       LAKE  SEEPAGE =           0.0000         LAKE  SEEPAGE =           0.0000
        UZF RECHARGE =    10019248.0000          UZF RECHARGE =          44.5125
               GW ET =           0.0000                 GW ET =           0.0000
     SURFACE LEAKAGE =           0.0000       SURFACE LEAKAGE =           0.0000

            TOTAL IN =   152926272.0000              TOTAL IN =          94.5320

          OUT:                                     OUT:
          ----                                     ----
             STORAGE =     8170436.5000               STORAGE =          46.6349
       CONSTANT HEAD =           0.0000         CONSTANT HEAD =           0.0000
               WELLS =    56064000.0000                 WELLS =          20.0000
     HEAD DEP BOUNDS =      803380.3125       HEAD DEP BOUNDS =           0.2868
      STREAM LEAKAGE =    48397216.0000        STREAM LEAKAGE =          17.3369
       LAKE  SEEPAGE =           0.0000         LAKE  SEEPAGE =           0.0000
        UZF RECHARGE =           0.0000          UZF RECHARGE =           0.0000
               GW ET =    39492012.0000                 GW ET =          10.2731
     SURFACE LEAKAGE =           0.0000       SURFACE LEAKAGE =           0.0000

           TOTAL OUT =   152927040.0000             TOTAL OUT =          94.5317

            IN - OUT =        -768.0000              IN - OUT =       3.5858E-04

 PERCENT DISCREPANCY =          -0.00     PERCENT DISCREPANCY =           0.00






         TIME SUMMARY AT END OF TIME STEP    1 IN STRESS PERIOD    2
                    SECONDS     MINUTES      HOURS       DAYS        YEARS
                    -----------------------------------------------------------
   TIME STEP LENGTH 1.75200E+05  2920.0      48.667      2.0278     5.55175E-03
 STRESS PERIOD TIME 1.75200E+05  2920.0      48.667      2.0278     5.55175E-03
         TOTAL TIME 2.80320E+06  46720.      778.67      32.444     8.88281E-02
1
 
 SOLVING FOR HEAD 
                                                   Max.-Head-Change                         Max.-Flux-Residual
  Residual-Control   Outer-Iter.   Inner-Iter.     Column Row Layer    Maximum-Head-Change  Column Row Layer    Maximum-Flux-Residual          L2-NORM 
          0                 1           2             6    5     2      -0.5975387175E-01       6    5    2        -0.1747743187E+01      0.5475388124E+01
          0                 2           2             6    5     2       0.4968437058E-02       6    5    2         0.1513274926E+00      0.2174618531E+00
          0                 3           1             6    5     2      -0.2864983715E-03       6    5    2        -0.9079730769E-02      0.1240452027E-01

    ------------------------------------------------
       NWT REQUIRED            3 OUTER ITERATIONS 
       AND A TOTAL OF          5 INNER ITERATIONS.
    ------------------------------------------------

 OUTPUT CONTROL WAS SPECIFIED FOR A NONEXISTENT TIME STEP
 OR OUTPUT CONTROL DATA ARE NOT ENTERED IN ASCENDING ORDER
 OUTPUT CONTROL STRESS PERIOD    1   TIME STEP   10
 MODEL STRESS PERIOD    2   TIME STEP    2
 APPLYING THE SPECIFIED OUTPUT CONTROL TO THE CURRENT TIME STEP

 OUTPUT CONTROL FOR STRESS PERIOD    2   TIME STEP    2
    PRINT BUDGET
    SAVE BUDGET

            WELLS   PERIOD    2   STEP   2
 WELL      1   LAYER   2   ROW     6   COL     4   RATE    -2.00000    
 WELL      2   LAYER   2   ROW     6   COL     5   RATE    -2.00000    
 WELL      3   LAYER   2   ROW     7   COL     4   RATE    -2.00000    
 WELL      4   LAYER   2   ROW     7   COL     5   RATE    -2.00000    
 WELL      5   LAYER   2   ROW     8   COL     4   RATE    -2.00000    
 WELL      6   LAYER   2   ROW     8   COL     5   RATE    -2.00000    
 WELL      7   LAYER   2   ROW     9   COL     4   RATE    -2.00000    
 WELL      8   LAYER   2   ROW     9   COL     5   RATE    -2.00000    
 WELL      9   LAYER   2   ROW    10   COL     4   RATE    -2.00000    
 WELL     10   LAYER   2   ROW    10   COL     5   RATE    -2.00000    

  HEAD DEP BOUNDS   PERIOD    2   STEP     2
 BOUNDARY      1   LAYER   2   ROW    13   COL     1   RATE   -0.286913    
 BOUNDARY      2   LAYER   2   ROW    14   COL     9   RATE    0.215349    



 STREAM LISTING     PERIOD      2   STEP        2

 LAYER ROW COL. STREAM  RCH.  FLOW INTO     FLOW TO   FLOW OUT OF   OVRLND.     DIRECT     STREAM       STREAM     STREAM     STREAM   STREAMBED  STREAMBED
                SEG.NO.  NO.  STRM. RCH.    AQUIFER    STRM. RCH.    RUNOFF     PRECIP       ET          HEAD       DEPTH      WIDTH   CONDCTNC.   GRADIENT

   2    1    1     1     1    2.2000E+01  1.8316E+00   2.0168E+01  0.000E+00  0.000E+00  0.000E+00  1.09417E+03  1.118E+00  1.224E+01  5.509E-01  1.108E+00
   2    2    2     1     2    2.0168E+01  3.2953E+00   1.6873E+01  0.000E+00  0.000E+00  0.000E+00  1.08913E+03  1.076E+00  1.155E+01  8.085E-01  1.359E+00
   2    3    3     1     3    1.6873E+01  2.5596E+00   1.4314E+01  0.000E+00  0.000E+00  0.000E+00  1.08344E+03  1.024E+00  1.060E+01  6.361E-01  1.341E+00
   2    3    4     1     4    1.4314E+01  2.1564E+00   1.2157E+01  0.000E+00  0.000E+00  0.000E+00  1.07838E+03  9.761E-01  9.772E+00  5.423E-01  1.325E+00
   2    4    5     2     1    2.1572E+00  2.1572E+00   0.0000E+00  0.000E+00  0.000E+00  0.000E+00  1.07200E+03  6.247E-02  1.200E+01  7.800E-01  1.021E+00
   2    5    6     2     2    0.0000E+00  0.0000E+00   0.0000E+00  0.000E+00  0.000E+00  0.000E+00  1.06651E+03  0.000E+00  1.200E+01  6.000E-01  1.000E+00
   2    6    6     2     3    0.0000E+00  0.0000E+00   0.0000E+00  0.000E+00  0.000E+00  0.000E+00  1.06179E+03  0.000E+00  1.200E+01  6.000E-01  1.000E+00
   2    7    6     2     4    0.0000E+00  0.0000E+00   0.0000E+00  0.000E+00  0.000E+00  0.000E+00  1.05708E+03  0.000E+00  1.200E+01  6.000E-01  1.000E+00
   2    8    6     2     5    0.0000E+00  0.0000E+00   0.0000E+00  0.000E+00  0.000E+00  0.000E+00  1.05236E+03  0.000E+00  1.200E+01  6.000E-01  1.000E+00
   2    3    5     3     1    1.0000E+01  2.8252E+00   7.1748E+00  0.000E+00  0.000E+00  0.000E+00  1.07555E+03  1.909E+00  9.636E+00  7.227E-01  1.955E+00
   2    3    6     3     2    7.1748E+00  2.4905E+00   4.6843E+00  0.000E+00  0.000E+00  0.000E+00  1.07264E+03  1.727E+00  8.909E+00  6.682E-01  1.864E+00
   2    3    7     3     3    4.6843E+00  1.9718E+00   2.7125E+00  0.000E+00  0.000E+00  0.000E+00  1.06987E+03  1.555E+00  8.218E+00  5.547E-01  1.777E+00
   2    4    8     3     4    2.7125E+00  2.2567E+00   4.5579E-01  0.000E+00  0.000E+00  0.000E+00  1.06682E+03  1.364E+00  7.455E+00  6.709E-01  1.682E+00
   2    5    8     3     5    4.5579E-01  4.5579E-01   0.0000E+00  0.000E+00  0.000E+00  0.000E+00  1.06362E+03  0.000E+00  6.655E+00  4.991E-01  1.582E+00
   2    6    8     3     6    0.0000E+00  0.0000E+00   0.0000E+00  0.000E+00  0.000E+00  0.000E+00  1.06055E+03  0.000E+00  6.145E+00  1.844E-01  1.000E+00
   2    5   10     4     1    1.0000E+01  9.0525E-01   9.0947E+00  0.000E+00  0.000E+00  0.000E+00  1.07835E+03  6.210E-01  1.000E+01  2.500E-01  1.207E+00
   2    5    9     4     2    9.0947E+00  1.7835E+00   7.3113E+00  0.000E+00  0.000E+00  0.000E+00  1.07148E+03  5.670E-01  1.000E+01  5.000E-01  1.189E+00
   2    6    8     4     3    7.3113E+00  1.2257E+00   6.0855E+00  0.000E+00  0.000E+00  0.000E+00  1.06368E+03  5.021E-01  1.000E+01  3.500E-01  1.167E+00
   2    6    8     5     1    6.0855E+00  1.4716E+00   4.6139E+00  0.000E+00  0.000E+00  0.000E+00  1.05854E+03  5.396E-01  1.039E+01  4.158E-01  1.180E+00
   2    7    7     5     2    4.6139E+00  1.4897E+00   3.1242E+00  0.000E+00  0.000E+00  0.000E+00  1.05398E+03  4.817E-01  8.557E+00  4.279E-01  1.161E+00
   2    8    7     5     3    3.1242E+00  8.2855E-01   2.2957E+00  0.000E+00  0.000E+00  0.000E+00  1.04968E+03  4.253E-01  6.911E+00  2.419E-01  1.142E+00
   2    8    6     5     4    2.2957E+00  4.9455E-01   1.8011E+00  0.000E+00  0.000E+00  0.000E+00  1.04664E+03  3.856E-01  5.843E+00  1.461E-01  1.129E+00
   2    9    6     6     1    1.8011E+00  1.8011E+00   0.0000E+00  0.000E+00  0.000E+00  0.000E+00  1.04278E+03  5.669E-02  1.200E+01  6.000E-01  1.019E+00
   2   10    7     6     2    0.0000E+00  0.0000E+00   0.0000E+00  0.000E+00  0.000E+00  0.000E+00  1.03818E+03  0.000E+00  1.200E+01  6.000E-01  1.000E+00
   2   11    7     6     3    0.0000E+00  0.0000E+00   0.0000E+00  0.000E+00  0.000E+00  0.000E+00  1.03364E+03  0.000E+00  1.200E+01  6.000E-01  1.000E+00
   2   12    7     6     4    0.0000E+00  0.0000E+00   0.0000E+00  0.000E+00  0.000E+00  0.000E+00  1.02909E+03  0.000E+00  1.200E+01  6.000E-01  5.923E-01
   2   13    7     6     5    0.0000E+00 -7.2474E-01   7.2474E-01  0.000E+00  0.000E+00  0.000E+00  1.02601E+03  9.626E-02  1.200E+01  2.400E-01 -1.007E+00
   2   14    9     7     1    1.5000E+02  2.9695E+00   1.4703E+02  0.000E+00  0.000E+00  0.000E+00  1.03986E+03  2.283E+00  5.528E+01  5.591E+00  1.770E-01
   2   13    8     7     2    1.4703E+02  4.1161E+00   1.4291E+02  0.000E+00  0.000E+00  0.000E+00  1.03476E+03  2.264E+00  5.519E+01  6.140E+00  2.235E-01
   2   13    7     7     3    1.4291E+02  3.5546E+00   1.3936E+02  0.000E+00  0.000E+00  0.000E+00  1.02966E+03  2.244E+00  5.510E+01  5.571E+00  2.127E-01
   2   13    6     8     1    1.4008E+02  1.6765E+00   1.3841E+02  0.000E+00  0.000E+00  0.000E+00  1.02461E+03  2.739E+00  3.972E+01  4.048E+00  1.381E-01
   2   13    5     8     2    1.3841E+02 -1.4922E+00   1.3990E+02  0.000E+00  0.000E+00  0.000E+00  1.01836E+03  2.739E+00  3.971E+01  4.047E+00 -1.229E-01
   2   13    4     8     3    1.3990E+02 -4.5633E+00   1.4446E+02  0.000E+00  0.000E+00  0.000E+00  1.01214E+03  2.761E+00  4.003E+01  4.079E+00 -3.729E-01
   2   13    3     8     4    1.4446E+02 -5.3229E+00   1.4979E+02  0.000E+00  0.000E+00  0.000E+00  1.00592E+03  2.796E+00  4.055E+01  4.132E+00 -4.294E-01
   2   13    2     8     5    1.4979E+02 -3.2863E+00   1.5307E+02  0.000E+00  0.000E+00  0.000E+00  9.99702E+02  2.827E+00  4.099E+01  4.177E+00 -2.623E-01
   2   13    1     8     6    1.5307E+02 -2.0932E+00   1.5517E+02  0.000E+00  0.000E+00  0.000E+00  9.94721E+02  2.846E+00  4.126E+01  2.523E+00 -2.766E-01
   2    4    5     9     1    0.0000E+00  0.0000E+00   0.0000E+00  0.000E+00  0.000E+00  0.000E+00  1.06000E+03  0.000E+00  2.000E+01  2.000E-03  1.000E+00
   2    4    5    10     1    0.0000E+00  0.0000E+00   0.0000E+00  0.000E+00  0.000E+00  0.000E+00  1.08000E+03  0.000E+00  2.000E+01  2.000E-03  1.000E+00



 ..........LAKE  1 IS DRY..........

     SECTIONS OF THE LAKE BOTTOM HAVE BECOME DRY.  THE DRYSECTIONS
     LIE ABOVE THE FOLLOWING  1 AQUIFER CELLS (LAYER,ROW,COLUMN):
     (  2,  4,  5)  (

 PERIOD     2     TIME STEP     2     TIME STEP LENGTH  1.7520E+05
 PERIOD TIME  3.5040E+05     TOTAL SIMULATION TIME  2.9784E+06


                 HYDROLOGIC BUDGET SUMMARIES FOR SIMULATED LAKES
     (ALL FLUID FLUXES ARE VOLUMES ADDED TO THE LAKE DURING PRESENT TIME STEP)
     ----------------------------------------------------------------------------------------
 LAKE    STAGE         VOLUME     VOL. CHANGE      PRECIP     EVAPORATION    SPECIFIED RUNOFF     COMPUTED RUNOFF    TOTAL RUNOFF
   1  1.074500E+03  0.000000E+00  0.000000E+00  0.000000E+00  0.000000E+00   0.000000E+00          0.000000E+00      0.000000E+00

            GROUND WATER            SURFACE WATER        WATER          UZF INFIL.
 LAKE    INFLOW     OUTFLOW      INFLOW     OUTFLOW       USE        FROM LAKE
   1  0.0000E+00  0.0000E+00  0.0000E+00  0.0000E+00  0.0000E+00       0.0000E+00

      CONNECTED LAKE   TIME-STEP         STAGE-CHANGE          PERCENT
 LAKE    INFLUX      SURFACE AREA   TIME STEP  CUMULATIVE    DISCREPANCY
   1   0.0000E+00     0.0000E+00   0.0000E+00  0.0000E+00       0.000
 --------------------------------------------------------------------------------



            CUMULATIVE HYDROLOGIC BUDGET SUMMARIES FOR SIMULATED LAKES
     (ALL FLUID FLUXES ARE SUMS OF VOLUMES ADDED TO THE LAKE SINCE INITIAL TIME)
     ---------------------------------------------------------------------------
 LAKE       PRECIP       EVAP     SPECIFIED RUNOFF   COMPUTED RUNOFF   TOTAL RUNOFF
   1     0.0000E+00  0.0000E+00       0.0000E+00       0.0000E+00       0.0000E+00

            GROUND WATER            SURFACE WATER       UZF INFIL.
 LAKE    INFLOW     OUTFLOW      INFLOW     OUTFLOW     FROM LAKE
   1  0.0000E+00  0.0000E+00  0.0000E+00  0.0000E+00    0.0000E+00

         WATER    CONNECTED LAKE   CHANGE       PERCENT
 LAKE     USE         INFLUX       IN VOL.    DISCREPANCY
   1   0.0000E+00   0.0000E+00   0.0000E+00      0.000
 --------------------------------------------------------------------------------

 UBDSV3 SAVING "           GW ET" ON UNIT  61 AT TIME STEP     2, STRESS PERIOD   2
 UBDSV3 SAVING "    UZF RECHARGE" ON UNIT  61 AT TIME STEP     2, STRESS PERIOD   2
 UBDSV3 SAVING " SURFACE LEAKAGE" ON UNIT  61 AT TIME STEP     2, STRESS PERIOD   2
 UBDSV3 SAVING "       HORT+DUNN" ON UNIT  61 AT TIME STEP     2, STRESS PERIOD   2
 UBDSV3 SAVING "  STORAGE CHANGE" ON UNIT  61 AT TIME STEP     2, STRESS PERIOD   2


UNSATURATED ZONE PACKAGE VOLUMETRIC BUDGET FOR  TIME STEP     2 STRESS PERIOD    2
  ------------------------------------------------------------------------------



     CUMULATIVE VOLUMES      L**3       RATES FOR THIS TIME STEP      L**3/T
     ------------------                 ------------------------

           IN:                                      IN:
           ---                                      ---
        INFILTRATION =    25907700.0000          INFILTRATION =          67.6000

          OUT:                                     OUT:
          ----                                     ----
              UZF ET =    45776651.1221                UZF ET =         130.6234
        UZF RECHARGE =    17746936.6768          UZF RECHARGE =          44.1078

            IN - OUT =   -37615887.7988              IN - OUT =        -107.1312

          STORAGE:                                 STORAGE:
          --------                                 --------
      STORAGE CHANGE =   -37605295.0387        STORAGE CHANGE =        -107.0977

 PERCENT DISCREPANCY IS DIFFERENCE BETWEEN IN-OUT MINUS CHANGE IN STORAGE
 DIVIDED BY THE AVERAGE OF IN AND OUT TIMES 100

 PERCENT DISCREPANCY =          -0.00     PERCENT DISCREPANCY =          -0.02






1
  VOLUMETRIC BUDGET FOR ENTIRE MODEL AT END OF TIME STEP    2, STRESS PERIOD   2
  ------------------------------------------------------------------------------

     CUMULATIVE VOLUMES      L**3       RATES FOR THIS TIME STEP      L**3/T
     ------------------                 ------------------------

           IN:                                      IN:
           ---                                      ---
             STORAGE =     1834326.0000               STORAGE =           5.1208
       CONSTANT HEAD =           0.0000         CONSTANT HEAD =           0.0000
               WELLS =           0.0000                 WELLS =           0.0000
     HEAD DEP BOUNDS =      643147.0625       HEAD DEP BOUNDS =           0.2153
      STREAM LEAKAGE =   149128736.0000        STREAM LEAKAGE =          44.3167
       LAKE  SEEPAGE =           0.0000         LAKE  SEEPAGE =           0.0000
        UZF RECHARGE =    17746934.0000          UZF RECHARGE =          44.1078
               GW ET =           0.0000                 GW ET =           0.0000
     SURFACE LEAKAGE =           0.0000       SURFACE LEAKAGE =           0.0000

            TOTAL IN =   169353136.0000              TOTAL IN =          93.7606

          OUT:                                     OUT:
          ----                                     ----
             STORAGE =    16175952.0000               STORAGE =          45.6936
       CONSTANT HEAD =           0.0000         CONSTANT HEAD =           0.0000
               WELLS =    59568000.0000                 WELLS =          20.0000
     HEAD DEP BOUNDS =      853647.4375       HEAD DEP BOUNDS =           0.2869
      STREAM LEAKAGE =    51460180.0000        STREAM LEAKAGE =          17.4827
       LAKE  SEEPAGE =           0.0000         LAKE  SEEPAGE =           0.0000
        UZF RECHARGE =           0.0000          UZF RECHARGE =           0.0000
               GW ET =    41296060.0000                 GW ET =          10.2971
     SURFACE LEAKAGE =           0.0000       SURFACE LEAKAGE =           0.0000

           TOTAL OUT =   169353840.0000             TOTAL OUT =          93.7603

            IN - OUT =        -704.0000              IN - OUT =       3.8147E-04

 PERCENT DISCREPANCY =          -0.00     PERCENT DISCREPANCY =           0.00






         TIME SUMMARY AT END OF TIME STEP    2 IN STRESS PERIOD    2
                    SECONDS     MINUTES      HOURS       DAYS        YEARS
                    -----------------------------------------------------------
   TIME STEP LENGTH 1.75200E+05  2920.0      48.667      2.0278     5.55175E-03
 STRESS PERIOD TIME 3.50400E+05  5840.0      97.333      4.0556     1.11035E-02
         TOTAL TIME 2.97840E+06  49640.      827.33      34.472     9.43798E-02
1
 
 SOLVING FOR HEAD 
                                                   Max.-Head-Change                         Max.-Flux-Residual
  Residual-Control   Outer-Iter.   Inner-Iter.     Column Row Layer    Maximum-Head-Change  Column Row Layer    Maximum-Flux-Residual          L2-NORM 
          0                 1           2             6    5     2      -0.5403724825E-01       6    5    2        -0.1574288568E+01      0.5236028136E+01
          0                 2           2             6    5     2       0.5152277921E-02       6    5    2         0.1566668737E+00      0.2225498525E+00
          0                 3           1             6    5     2      -0.2966081948E-03       6    5    2        -0.9400101311E-02      0.1274914159E-01

    ------------------------------------------------
       NWT REQUIRED            3 OUTER ITERATIONS 
       AND A TOTAL OF          5 INNER ITERATIONS.
    ------------------------------------------------

 OUTPUT CONTROL WAS SPECIFIED FOR A NONEXISTENT TIME STEP
 OR OUTPUT CONTROL DATA ARE NOT ENTERED IN ASCENDING ORDER
 OUTPUT CONTROL STRESS PERIOD    1   TIME STEP   15
 MODEL STRESS PERIOD    2   TIME STEP    3
 APPLYING THE SPECIFIED OUTPUT CONTROL TO THE CURRENT TIME STEP

 OUTPUT CONTROL FOR STRESS PERIOD    2   TIME STEP    3
    PRINT BUDGET
    PRINT HEAD FOR ALL LAYERS
    SAVE HEAD FOR ALL LAYERS
    SAVE BUDGET

            WELLS   PERIOD    2   STEP   3
 WELL      1   LAYER   2   ROW     6   COL     4   RATE    -2.00000    
 WELL      2   LAYER   2   ROW     6   COL     5   RATE    -2.00000    
 WELL      3   LAYER   2   ROW     7   COL     4   RATE    -2.00000    
 WELL      4   LAYER   2   ROW     7   COL     5   RATE    -2.00000    
 WELL      5   LAYER   2   ROW     8   COL     4   RATE    -2.00000    
 WELL      6   LAYER   2   ROW     8   COL     5   RATE    -2.00000    
 WELL      7   LAYER   2   ROW     9   COL     4   RATE    -2.00000    
 WELL      8   LAYER   2   ROW     9   COL     5   RATE    -2.00000    
 WELL      9   LAYER   2   ROW    10   COL     4   RATE    -2.00000    
 WELL     10   LAYER   2   ROW    10   COL     5   RATE    -2.00000    

  HEAD DEP BOUNDS   PERIOD    2   STEP     3
 BOUNDARY      1   LAYER   2   ROW    13   COL     1   RATE   -0.287056    
 BOUNDARY      2   LAYER   2   ROW    14   COL     9   RATE    0.215114    



 STREAM LISTING     PERIOD      2   STEP        3

 LAYER ROW COL. STREAM  RCH.  FLOW INTO     FLOW TO   FLOW OUT OF   OVRLND.     DIRECT     STREAM       STREAM     STREAM     STREAM   STREAMBED  STREAMBED
                SEG.NO.  NO.  STRM. RCH.    AQUIFER    STRM. RCH.    RUNOFF     PRECIP       ET          HEAD       DEPTH      WIDTH   CONDCTNC.   GRADIENT

   2    1    1     1     1    2.2000E+01  1.8332E+00   2.0167E+01  0.000E+00  0.000E+00  0.000E+00  1.09417E+03  1.118E+00  1.224E+01  5.509E-01  1.109E+00
   2    2    2     1     2    2.0167E+01  3.2951E+00   1.6872E+01  0.000E+00  0.000E+00  0.000E+00  1.08913E+03  1.076E+00  1.155E+01  8.085E-01  1.359E+00
   2    3    3     1     3    1.6872E+01  2.5594E+00   1.4312E+01  0.000E+00  0.000E+00  0.000E+00  1.08344E+03  1.024E+00  1.060E+01  6.361E-01  1.341E+00
   2    3    4     1     4    1.4312E+01  2.1563E+00   1.2156E+01  0.000E+00  0.000E+00  0.000E+00  1.07838E+03  9.761E-01  9.772E+00  5.423E-01  1.325E+00
   2    4    5     2     1    2.1559E+00  2.1559E+00   0.0000E+00  0.000E+00  0.000E+00  0.000E+00  1.07200E+03  6.245E-02  1.200E+01  7.800E-01  1.021E+00
   2    5    6     2     2    0.0000E+00  0.0000E+00   0.0000E+00  0.000E+00  0.000E+00  0.000E+00  1.06651E+03  0.000E+00  1.200E+01  6.000E-01  1.000E+00
   2    6    6     2     3    0.0000E+00  0.0000E+00   0.0000E+00  0.000E+00  0.000E+00  0.000E+00  1.06179E+03  0.000E+00  1.200E+01  6.000E-01  1.000E+00
   2    7    6     2     4    0.0000E+00  0.0000E+00   0.0000E+00  0.000E+00  0.000E+00  0.000E+00  1.05708E+03  0.000E+00  1.200E+01  6.000E-01  1.000E+00
   2    8    6     2     5    0.0000E+00  0.0000E+00   0.0000E+00  0.000E+00  0.000E+00  0.000E+00  1.05236E+03  0.000E+00  1.200E+01  6.000E-01  1.000E+00
   2    3    5     3     1    1.0000E+01  2.8252E+00   7.1748E+00  0.000E+00  0.000E+00  0.000E+00  1.07555E+03  1.909E+00  9.636E+00  7.227E-01  1.955E+00
   2    3    6     3     2    7.1748E+00  2.4905E+00   4.6843E+00  0.000E+00  0.000E+00  0.000E+00  1.07264E+03  1.727E+00  8.909E+00  6.682E-01  1.864E+00
   2    3    7     3     3    4.6843E+00  1.9718E+00   2.7125E+00  0.000E+00  0.000E+00  0.000E+00  1.06987E+03  1.555E+00  8.218E+00  5.547E-01  1.777E+00
   2    4    8     3     4    2.7125E+00  2.2567E+00   4.5579E-01  0.000E+00  0.000E+00  0.000E+00  1.06682E+03  1.364E+00  7.455E+00  6.709E-01  1.682E+00
   2    5    8     3     5    4.5579E-01  4.5579E-01   0.0000E+00  0.000E+00  0.000E+00  0.000E+00  1.06362E+03  0.000E+00  6.655E+00  4.991E-01  1.582E+00
   2    6    8     3     6    0.0000E+00  0.0000E+00   0.0000E+00  0.000E+00  0.000E+00  0.000E+00  1.06055E+03  0.000E+00  6.145E+00  1.844E-01  1.000E+00
   2    5   10     4     1    1.0000E+01  9.0525E-01   9.0947E+00  0.000E+00  0.000E+00  0.000E+00  1.07835E+03  6.210E-01  1.000E+01  2.500E-01  1.207E+00
   2    5    9     4     2    9.0947E+00  1.7835E+00   7.3113E+00  0.000E+00  0.000E+00  0.000E+00  1.07148E+03  5.670E-01  1.000E+01  5.000E-01  1.189E+00
   2    6    8     4     3    7.3113E+00  1.2257E+00   6.0855E+00  0.000E+00  0.000E+00  0.000E+00  1.06368E+03  5.021E-01  1.000E+01  3.500E-01  1.167E+00
   2    6    8     5     1    6.0855E+00  1.4716E+00   4.6139E+00  0.000E+00  0.000E+00  0.000E+00  1.05854E+03  5.396E-01  1.039E+01  4.158E-01  1.180E+00
   2    7    7     5     2    4.6139E+00  1.4897E+00   3.1242E+00  0.000E+00  0.000E+00  0.000E+00  1.05398E+03  4.817E-01  8.557E+00  4.279E-01  1.161E+00
   2    8    7     5     3    3.1242E+00  8.2855E-01   2.2957E+00  0.000E+00  0.000E+00  0.000E+00  1.04968E+03  4.253E-01  6.911E+00  2.419E-01  1.142E+00
   2    8    6     5     4    2.2957E+00  4.9455E-01   1.8011E+00  0.000E+00  0.000E+00  0.000E+00  1.04664E+03  3.856E-01  5.843E+00  1.461E-01  1.129E+00
   2    9    6     6     1    1.8011E+00  1.8011E+00   0.0000E+00  0.000E+00  0.000E+00  0.000E+00  1.04278E+03  5.669E-02  1.200E+01  6.000E-01  1.019E+00
   2   10    7     6     2    0.0000E+00  0.0000E+00   0.0000E+00  0.000E+00  0.000E+00  0.000E+00  1.03818E+03  0.000E+00  1.200E+01  6.000E-01  1.000E+00
   2   11    7     6     3    0.0000E+00  0.0000E+00   0.0000E+00  0.000E+00  0.000E+00  0.000E+00  1.03364E+03  0.000E+00  1.200E+01  6.000E-01  1.000E+00
   2   12    7     6     4    0.0000E+00  0.0000E+00   0.0000E+00  0.000E+00  0.000E+00  0.000E+00  1.02909E+03  0.000E+00  1.200E+01  6.000E-01  5.886E-01
   2   13    7     6     5    0.0000E+00 -7.2596E-01   7.2596E-01  0.000E+00  0.000E+00  0.000E+00  1.02601E+03  9.636E-02  1.200E+01  2.400E-01 -1.008E+00
   2   14    9     7     1    1.5000E+02  2.9355E+00   1.4706E+02  0.000E+00  0.000E+00  0.000E+00  1.03986E+03  2.283E+00  5.528E+01  5.591E+00  1.750E-01
   2   13    8     7     2    1.4706E+02  4.0801E+00   1.4298E+02  0.000E+00  0.000E+00  0.000E+00  1.03476E+03  2.265E+00  5.519E+01  6.140E+00  2.215E-01
   2   13    7     7     3    1.4298E+02  3.5283E+00   1.3946E+02  0.000E+00  0.000E+00  0.000E+00  1.02966E+03  2.244E+00  5.510E+01  5.572E+00  2.111E-01
   2   13    6     8     1    1.4018E+02  1.6551E+00   1.3853E+02  0.000E+00  0.000E+00  0.000E+00  1.02462E+03  2.740E+00  3.973E+01  4.049E+00  1.363E-01
   2   13    5     8     2    1.3853E+02 -1.5191E+00   1.4005E+02  0.000E+00  0.000E+00  0.000E+00  1.01836E+03  2.740E+00  3.972E+01  4.048E+00 -1.251E-01
   2   13    4     8     3    1.4005E+02 -4.6046E+00   1.4465E+02  0.000E+00  0.000E+00  0.000E+00  1.01214E+03  2.762E+00  4.005E+01  4.081E+00 -3.761E-01
   2   13    3     8     4    1.4465E+02 -5.3663E+00   1.5002E+02  0.000E+00  0.000E+00  0.000E+00  1.00592E+03  2.798E+00  4.057E+01  4.134E+00 -4.327E-01
   2   13    2     8     5    1.5002E+02 -3.3089E+00   1.5333E+02  0.000E+00  0.000E+00  0.000E+00  9.99704E+02  2.829E+00  4.101E+01  4.179E+00 -2.639E-01
   2   13    1     8     6    1.5333E+02 -2.0996E+00   1.5543E+02  0.000E+00  0.000E+00  0.000E+00  9.94722E+02  2.847E+00  4.129E+01  2.524E+00 -2.772E-01
   2    4    5     9     1    0.0000E+00  0.0000E+00   0.0000E+00  0.000E+00  0.000E+00  0.000E+00  1.06000E+03  0.000E+00  2.000E+01  2.000E-03  1.000E+00
   2    4    5    10     1    0.0000E+00  0.0000E+00   0.0000E+00  0.000E+00  0.000E+00  0.000E+00  1.08000E+03  0.000E+00  2.000E+01  2.000E-03  1.000E+00



 ..........LAKE  1 IS DRY..........

     SECTIONS OF THE LAKE BOTTOM HAVE BECOME DRY.  THE DRYSECTIONS
     LIE ABOVE THE FOLLOWING  1 AQUIFER CELLS (LAYER,ROW,COLUMN):
     (  2,  4,  5)  (

 PERIOD     2     TIME STEP     3     TIME STEP LENGTH  1.7520E+05
 PERIOD TIME  5.2560E+05     TOTAL SIMULATION TIME  3.1536E+06


                 HYDROLOGIC BUDGET SUMMARIES FOR SIMULATED LAKES
     (ALL FLUID FLUXES ARE VOLUMES ADDED TO THE LAKE DURING PRESENT TIME STEP)
     ----------------------------------------------------------------------------------------
 LAKE    STAGE         VOLUME     VOL. CHANGE      PRECIP     EVAPORATION    SPECIFIED RUNOFF     COMPUTED RUNOFF    TOTAL RUNOFF
   1  1.074500E+03  0.000000E+00  0.000000E+00  0.000000E+00  0.000000E+00   0.000000E+00          0.000000E+00      0.000000E+00

            GROUND WATER            SURFACE WATER        WATER          UZF INFIL.
 LAKE    INFLOW     OUTFLOW      INFLOW     OUTFLOW       USE        FROM LAKE
   1  0.0000E+00  0.0000E+00  0.0000E+00  0.0000E+00  0.0000E+00       0.0000E+00

      CONNECTED LAKE   TIME-STEP         STAGE-CHANGE          PERCENT
 LAKE    INFLUX      SURFACE AREA   TIME STEP  CUMULATIVE    DISCREPANCY
   1   0.0000E+00     0.0000E+00   0.0000E+00  0.0000E+00       0.000
 --------------------------------------------------------------------------------



            CUMULATIVE HYDROLOGIC BUDGET SUMMARIES FOR SIMULATED LAKES
     (ALL FLUID FLUXES ARE SUMS OF VOLUMES ADDED TO THE LAKE SINCE INITIAL TIME)
     ---------------------------------------------------------------------------
 LAKE       PRECIP       EVAP     SPECIFIED RUNOFF   COMPUTED RUNOFF   TOTAL RUNOFF
   1     0.0000E+00  0.0000E+00       0.0000E+00       0.0000E+00       0.0000E+00

            GROUND WATER            SURFACE WATER       UZF INFIL.
 LAKE    INFLOW     OUTFLOW      INFLOW     OUTFLOW     FROM LAKE
   1  0.0000E+00  0.0000E+00  0.0000E+00  0.0000E+00    0.0000E+00

         WATER    CONNECTED LAKE   CHANGE       PERCENT
 LAKE     USE         INFLUX       IN VOL.    DISCREPANCY
   1   0.0000E+00   0.0000E+00   0.0000E+00      0.000
 --------------------------------------------------------------------------------

 UBDSV3 SAVING "           GW ET" ON UNIT  61 AT TIME STEP     3, STRESS PERIOD   2
 UBDSV3 SAVING "    UZF RECHARGE" ON UNIT  61 AT TIME STEP     3, STRESS PERIOD   2
 UBDSV3 SAVING " SURFACE LEAKAGE" ON UNIT  61 AT TIME STEP     3, STRESS PERIOD   2
 UBDSV3 SAVING "       HORT+DUNN" ON UNIT  61 AT TIME STEP     3, STRESS PERIOD   2
 UBDSV3 SAVING "  STORAGE CHANGE" ON UNIT  61 AT TIME STEP     3, STRESS PERIOD   2


UNSATURATED ZONE PACKAGE VOLUMETRIC BUDGET FOR  TIME STEP     3 STRESS PERIOD    2
  ------------------------------------------------------------------------------



     CUMULATIVE VOLUMES      L**3       RATES FOR THIS TIME STEP      L**3/T
     ------------------                 ------------------------

           IN:                                      IN:
           ---                                      ---
        INFILTRATION =    37751220.0000          INFILTRATION =          67.6000

          OUT:                                     OUT:
          ----                                     ----
              UZF ET =    68656289.9170                UZF ET =         130.5915
        UZF RECHARGE =    25328778.5046          UZF RECHARGE =          43.2754

            IN - OUT =   -56233848.4216              IN - OUT =        -106.2669

          STORAGE:                                 STORAGE:
          --------                                 --------
      STORAGE CHANGE =   -56219451.7999        STORAGE CHANGE =        -106.2452

 PERCENT DISCREPANCY IS DIFFERENCE BETWEEN IN-OUT MINUS CHANGE IN STORAGE
 DIVIDED BY THE AVERAGE OF IN AND OUT TIMES 100

 PERCENT DISCREPANCY =          -0.00     PERCENT DISCREPANCY =          -0.01






1
              HEAD IN LAYER   1 AT END OF TIME STEP     3 IN STRESS PERIOD    2
  -----------------------------------------------------------------------------

           1       2       3       4       5       6       7       8       9      10
 ...................................................................................
   1  6999.00 6999.00 6999.00 6999.00 6999.00 6999.00 6999.00 6999.00 6999.00 6999.00
   2  6999.00 6999.00 6999.00 6999.00 6999.00 6999.00 6999.00 6999.00 6999.00 6999.00
   3  6999.00 6999.00 6999.00 6999.00 6999.00 6999.00 6999.00 6999.00 6999.00 6999.00
   4  6999.00 6999.00 6999.00 6999.00 6999.00 6999.00 6999.00 6999.00 6999.00 6999.00
   5  6999.00 6999.00 6999.00 6999.00 6999.00 6999.00 6999.00 6999.00 6999.00 6999.00
   6  6999.00 6999.00 6999.00 6999.00 6999.00 6999.00 6999.00 6999.00 6999.00 6999.00
   7  6999.00 6999.00 6999.00 6999.00 6999.00 6999.00 6999.00 6999.00 6999.00 6999.00
   8  6999.00 6999.00 6999.00 6999.00 6999.00 6999.00 6999.00 6999.00 6999.00 6999.00
   9  6999.00 6999.00 6999.00 6999.00 6999.00 6999.00 6999.00 6999.00 6999.00 6999.00
  10  6999.00 6999.00 6999.00 6999.00 6999.00 6999.00 6999.00 6999.00 6999.00 6999.00
  11  6999.00 6999.00 6999.00 6999.00 6999.00 6999.00 6999.00 6999.00 6999.00 6999.00
  12  6999.00 6999.00 6999.00 6999.00 6999.00 6999.00 6999.00 6999.00 6999.00 6999.00
  13  6999.00 6999.00 6999.00 6999.00 6999.00 6999.00 6999.00 6999.00 6999.00 6999.00
  14  6999.00 6999.00 6999.00 6999.00 6999.00 6999.00 6999.00 6999.00 6999.00 6999.00
  15  6999.00 6999.00 6999.00 6999.00 6999.00 6999.00 6999.00 6999.00 6999.00 6999.00
1
              HEAD IN LAYER   2 AT END OF TIME STEP     3 IN STRESS PERIOD    2
  -----------------------------------------------------------------------------

           1       2       3       4       5       6       7       8       9      10
 ...................................................................................
   1  1090.84 1085.45 6999.00 6999.00 6999.00 6999.00 6999.00 6999.00 6999.00 6999.00
   2  1085.61 1079.65 1072.73 6999.00 6999.00 1062.24 1062.24 1061.79 6999.00 6999.00
   3  6999.00 1068.84 1065.45 1061.58 1061.78 1061.93 1062.31 1061.16 6999.00 6999.00
   4  1056.59 1059.07 1058.34 1055.33 1054.19 1053.38 1054.69 1058.72 1057.02 6999.00
   5  1052.39 1051.95 1051.02 1049.53 1049.39 1049.78 1049.89 1051.56 1054.86 1057.11
   6  1048.22 1046.66 1045.23 1044.02 1044.37 1046.04 1047.24 1049.32 1051.63 1055.51
   7  1045.20 1041.82 1040.23 1039.21 1039.89 1041.87 1043.90 1046.10 1047.93 6999.00
   8  6999.00 1036.71 1035.62 1034.82 1035.60 1037.64 1039.47 1042.51 1043.02 6999.00
   9  6999.00 1031.05 1030.72 1030.39 1031.37 1033.60 1034.79 1036.59 1038.12 6999.00
  10  6999.00 1025.42 1025.84 1026.34 1027.64 1029.73 1030.92 1032.50 1034.24 1034.63
  11  6999.00 1018.71 1019.97 1022.70 1024.71 1026.94 1028.57 1030.60 1033.02 6999.00
  12  1002.65 1009.26 1013.45 1017.86 1021.41 1024.81 1027.33 1030.50 1034.05 6999.00
  13   995.55 1000.50 1007.22 1013.27 1018.74 1024.21 1029.03 1034.10 1036.60 6999.00
  14  6999.00 1006.13 1009.30 1014.08 1019.11 1024.12 1029.49 1035.08 1039.34 6999.00
  15  6999.00 6999.00 1012.83 1015.69 1019.45 1022.88 6999.00 6999.00 6999.00 6999.00

 HEAD WILL BE SAVED ON UNIT   58 AT END OF TIME STEP    3, STRESS PERIOD    2
1
  VOLUMETRIC BUDGET FOR ENTIRE MODEL AT END OF TIME STEP    3, STRESS PERIOD   2
  ------------------------------------------------------------------------------

     CUMULATIVE VOLUMES      L**3       RATES FOR THIS TIME STEP      L**3/T
     ------------------                 ------------------------

           IN:                                      IN:
           ---                                      ---
             STORAGE =     2691988.0000               STORAGE =           4.8953
       CONSTANT HEAD =           0.0000         CONSTANT HEAD =           0.0000
               WELLS =           0.0000                 WELLS =           0.0000
     HEAD DEP BOUNDS =      680835.0625       HEAD DEP BOUNDS =           0.2151
      STREAM LEAKAGE =   156872400.0000        STREAM LEAKAGE =          44.1990
       LAKE  SEEPAGE =           0.0000         LAKE  SEEPAGE =           0.0000
        UZF RECHARGE =    25328776.0000          UZF RECHARGE =          43.2753
               GW ET =           0.0000                 GW ET =           0.0000
     SURFACE LEAKAGE =           0.0000       SURFACE LEAKAGE =           0.0000

            TOTAL IN =   185573984.0000              TOTAL IN =          92.5848

          OUT:                                     OUT:
          ----                                     ----
             STORAGE =    23946618.0000               STORAGE =          44.3531
       CONSTANT HEAD =           0.0000         CONSTANT HEAD =           0.0000
               WELLS =    63072000.0000                 WELLS =          20.0000
     HEAD DEP BOUNDS =      903939.6250       HEAD DEP BOUNDS =           0.2871
      STREAM LEAKAGE =    54547976.0000        STREAM LEAKAGE =          17.6244
       LAKE  SEEPAGE =           0.0000         LAKE  SEEPAGE =           0.0000
        UZF RECHARGE =           0.0000          UZF RECHARGE =           0.0000
               GW ET =    43104100.0000                 GW ET =          10.3199
     SURFACE LEAKAGE =           0.0000       SURFACE LEAKAGE =           0.0000

           TOTAL OUT =   185574624.0000             TOTAL OUT =          92.5844

            IN - OUT =        -640.0000              IN - OUT =       3.8147E-04

 PERCENT DISCREPANCY =          -0.00     PERCENT DISCREPANCY =           0.00






         TIME SUMMARY AT END OF TIME STEP    3 IN STRESS PERIOD    2
                    SECONDS     MINUTES      HOURS       DAYS        YEARS
                    -----------------------------------------------------------
   TIME STEP LENGTH 1.75200E+05  2920.0      48.667      2.0278     5.55175E-03
 STRESS PERIOD TIME 5.25600E+05  8760.0      146.00      6.0833     1.66553E-02
         TOTAL TIME 3.15360E+06  52560.      876.00      36.500     9.99316E-02
1
 
 SOLVING FOR HEAD 
                                                   Max.-Head-Change                         Max.-Flux-Residual
  Residual-Control   Outer-Iter.   Inner-Iter.     Column Row Layer    Maximum-Head-Change  Column Row Layer    Maximum-Flux-Residual          L2-NORM 
          0                 1           2             6    5     2      -0.4852178645E-01       6    5    2        -0.1406552207E+01      0.5082298746E+01
          0                 2           2             6    5     2       0.4643793280E-02       6    5    2         0.1406474992E+00      0.2098433825E+00
          0                 3           1             6    5     2      -0.2668216856E-03       6    5    2        -0.8438919084E-02      0.1175855909E-01

    ------------------------------------------------
       NWT REQUIRED            3 OUTER ITERATIONS 
       AND A TOTAL OF          5 INNER ITERATIONS.
    ------------------------------------------------

 OUTPUT CONTROL WAS SPECIFIED FOR A NONEXISTENT TIME STEP
 OR OUTPUT CONTROL DATA ARE NOT ENTERED IN ASCENDING ORDER
 OUTPUT CONTROL STRESS PERIOD    2   TIME STEP    1
 MODEL STRESS PERIOD    2   TIME STEP    4
 APPLYING THE SPECIFIED OUTPUT CONTROL TO THE CURRENT TIME STEP

 OUTPUT CONTROL FOR STRESS PERIOD    2   TIME STEP    4
    PRINT BUDGET
    SAVE BUDGET

            WELLS   PERIOD    2   STEP   4
 WELL      1   LAYER   2   ROW     6   COL     4   RATE    -2.00000    
 WELL      2   LAYER   2   ROW     6   COL     5   RATE    -2.00000    
 WELL      3   LAYER   2   ROW     7   COL     4   RATE    -2.00000    
 WELL      4   LAYER   2   ROW     7   COL     5   RATE    -2.00000    
 WELL      5   LAYER   2   ROW     8   COL     4   RATE    -2.00000    
 WELL      6   LAYER   2   ROW     8   COL     5   RATE    -2.00000    
 WELL      7   LAYER   2   ROW     9   COL     4   RATE    -2.00000    
 WELL      8   LAYER   2   ROW     9   COL     5   RATE    -2.00000    
 WELL      9   LAYER   2   ROW    10   COL     4   RATE    -2.00000    
 WELL     10   LAYER   2   ROW    10   COL     5   RATE    -2.00000    

  HEAD DEP BOUNDS   PERIOD    2   STEP     4
 BOUNDARY      1   LAYER   2   ROW    13   COL     1   RATE   -0.287188    
 BOUNDARY      2   LAYER   2   ROW    14   COL     9   RATE    0.214924    



 STREAM LISTING     PERIOD      2   STEP        4

 LAYER ROW COL. STREAM  RCH.  FLOW INTO     FLOW TO   FLOW OUT OF   OVRLND.     DIRECT     STREAM       STREAM     STREAM     STREAM   STREAMBED  STREAMBED
                SEG.NO.  NO.  STRM. RCH.    AQUIFER    STRM. RCH.    RUNOFF     PRECIP       ET          HEAD       DEPTH      WIDTH   CONDCTNC.   GRADIENT

   2    1    1     1     1    2.1379E+01  1.8095E+00   1.9569E+01  0.000E+00  0.000E+00  0.000E+00  1.09416E+03  1.108E+00  1.211E+01  5.448E-01  1.107E+00
   2    2    2     1     2    1.9569E+01  3.2367E+00   1.6333E+01  0.000E+00  0.000E+00  0.000E+00  1.08912E+03  1.066E+00  1.137E+01  7.960E-01  1.355E+00
   2    3    3     1     3    1.6333E+01  2.5109E+00   1.3822E+01  0.000E+00  0.000E+00  0.000E+00  1.08343E+03  1.014E+00  1.043E+01  6.256E-01  1.338E+00
   2    3    4     1     4    1.3822E+01  2.1126E+00   1.1709E+01  0.000E+00  0.000E+00  0.000E+00  1.07837E+03  9.659E-01  9.598E+00  5.327E-01  1.322E+00
   2    4    5     2     1    1.7093E+00  1.7093E+00   0.0000E+00  0.000E+00  0.000E+00  0.000E+00  1.07199E+03  5.433E-02  1.200E+01  7.800E-01  1.018E+00
   2    5    6     2     2    0.0000E+00  0.0000E+00   0.0000E+00  0.000E+00  0.000E+00  0.000E+00  1.06651E+03  0.000E+00  1.200E+01  6.000E-01  1.000E+00
   2    6    6     2     3    0.0000E+00  0.0000E+00   0.0000E+00  0.000E+00  0.000E+00  0.000E+00  1.06179E+03  0.000E+00  1.200E+01  6.000E-01  1.000E+00
   2    7    6     2     4    0.0000E+00  0.0000E+00   0.0000E+00  0.000E+00  0.000E+00  0.000E+00  1.05708E+03  0.000E+00  1.200E+01  6.000E-01  1.000E+00
   2    8    6     2     5    0.0000E+00  0.0000E+00   0.0000E+00  0.000E+00  0.000E+00  0.000E+00  1.05236E+03  0.000E+00  1.200E+01  6.000E-01  1.000E+00
   2    3    5     3     1    1.0000E+01  2.8252E+00   7.1748E+00  0.000E+00  0.000E+00  0.000E+00  1.07555E+03  1.909E+00  9.636E+00  7.227E-01  1.955E+00
   2    3    6     3     2    7.1748E+00  2.4905E+00   4.6843E+00  0.000E+00  0.000E+00  0.000E+00  1.07264E+03  1.727E+00  8.909E+00  6.682E-01  1.864E+00
   2    3    7     3     3    4.6843E+00  1.9718E+00   2.7125E+00  0.000E+00  0.000E+00  0.000E+00  1.06987E+03  1.555E+00  8.218E+00  5.547E-01  1.777E+00
   2    4    8     3     4    2.7125E+00  2.2567E+00   4.5579E-01  0.000E+00  0.000E+00  0.000E+00  1.06682E+03  1.364E+00  7.455E+00  6.709E-01  1.682E+00
   2    5    8     3     5    4.5579E-01  4.5579E-01   0.0000E+00  0.000E+00  0.000E+00  0.000E+00  1.06362E+03  0.000E+00  6.655E+00  4.991E-01  1.582E+00
   2    6    8     3     6    0.0000E+00  0.0000E+00   0.0000E+00  0.000E+00  0.000E+00  0.000E+00  1.06055E+03  0.000E+00  6.145E+00  1.844E-01  1.000E+00
   2    5   10     4     1    1.0000E+01  9.0525E-01   9.0947E+00  0.000E+00  0.000E+00  0.000E+00  1.07835E+03  6.210E-01  1.000E+01  2.500E-01  1.207E+00
   2    5    9     4     2    9.0947E+00  1.7835E+00   7.3113E+00  0.000E+00  0.000E+00  0.000E+00  1.07148E+03  5.670E-01  1.000E+01  5.000E-01  1.189E+00
   2    6    8     4     3    7.3113E+00  1.2257E+00   6.0855E+00  0.000E+00  0.000E+00  0.000E+00  1.06368E+03  5.021E-01  1.000E+01  3.500E-01  1.167E+00
   2    6    8     5     1    6.0855E+00  1.4716E+00   4.6139E+00  0.000E+00  0.000E+00  0.000E+00  1.05854E+03  5.396E-01  1.039E+01  4.158E-01  1.180E+00
   2    7    7     5     2    4.6139E+00  1.4897E+00   3.1242E+00  0.000E+00  0.000E+00  0.000E+00  1.05398E+03  4.817E-01  8.557E+00  4.279E-01  1.161E+00
   2    8    7     5     3    3.1242E+00  8.2855E-01   2.2957E+00  0.000E+00  0.000E+00  0.000E+00  1.04968E+03  4.253E-01  6.911E+00  2.419E-01  1.142E+00
   2    8    6     5     4    2.2957E+00  4.9455E-01   1.8011E+00  0.000E+00  0.000E+00  0.000E+00  1.04664E+03  3.856E-01  5.843E+00  1.461E-01  1.129E+00
   2    9    6     6     1    1.8011E+00  1.8011E+00   0.0000E+00  0.000E+00  0.000E+00  0.000E+00  1.04278E+03  5.669E-02  1.200E+01  6.000E-01  1.019E+00
   2   10    7     6     2    0.0000E+00  0.0000E+00   0.0000E+00  0.000E+00  0.000E+00  0.000E+00  1.03818E+03  0.000E+00  1.200E+01  6.000E-01  1.000E+00
   2   11    7     6     3    0.0000E+00  0.0000E+00   0.0000E+00  0.000E+00  0.000E+00  0.000E+00  1.03364E+03  0.000E+00  1.200E+01  6.000E-01  1.000E+00
   2   12    7     6     4    0.0000E+00  0.0000E+00   0.0000E+00  0.000E+00  0.000E+00  0.000E+00  1.02909E+03  0.000E+00  1.200E+01  6.000E-01  5.851E-01
   2   13    7     6     5    0.0000E+00 -7.2702E-01   7.2702E-01  0.000E+00  0.000E+00  0.000E+00  1.02601E+03  9.645E-02  1.200E+01  2.400E-01 -1.010E+00
   2   14    9     7     1    1.5000E+02  2.9079E+00   1.4709E+02  0.000E+00  0.000E+00  0.000E+00  1.03986E+03  2.284E+00  5.528E+01  5.591E+00  1.734E-01
   2   13    8     7     2    1.4709E+02  4.0500E+00   1.4304E+02  0.000E+00  0.000E+00  0.000E+00  1.03477E+03  2.265E+00  5.519E+01  6.140E+00  2.199E-01
   2   13    7     7     3    1.4304E+02  3.5054E+00   1.3954E+02  0.000E+00  0.000E+00  0.000E+00  1.02966E+03  2.245E+00  5.510E+01  5.572E+00  2.097E-01
   2   13    6     8     1    1.4026E+02  1.6342E+00   1.3863E+02  0.000E+00  0.000E+00  0.000E+00  1.02462E+03  2.741E+00  3.974E+01  4.050E+00  1.345E-01
   2   13    5     8     2    1.3863E+02 -1.5675E+00   1.4020E+02  0.000E+00  0.000E+00  0.000E+00  1.01837E+03  2.741E+00  3.974E+01  4.049E+00 -1.290E-01
   2   13    4     8     3    1.4020E+02 -4.6409E+00   1.4484E+02  0.000E+00  0.000E+00  0.000E+00  1.01214E+03  2.763E+00  4.007E+01  4.083E+00 -3.789E-01
   2   13    3     8     4    1.4484E+02 -5.4038E+00   1.5024E+02  0.000E+00  0.000E+00  0.000E+00  1.00592E+03  2.799E+00  4.059E+01  4.136E+00 -4.355E-01
   2   13    2     8     5    1.5024E+02 -3.3287E+00   1.5357E+02  0.000E+00  0.000E+00  0.000E+00  9.99705E+02  2.830E+00  4.104E+01  4.182E+00 -2.653E-01
   2   13    1     8     6    1.5357E+02 -2.1053E+00   1.5568E+02  0.000E+00  0.000E+00  0.000E+00  9.94724E+02  2.849E+00  4.131E+01  2.526E+00 -2.778E-01
   2    4    5     9     1    0.0000E+00  0.0000E+00   0.0000E+00  0.000E+00  0.000E+00  0.000E+00  1.06000E+03  0.000E+00  2.000E+01  2.000E-03  1.000E+00
   2    4    5    10     1    0.0000E+00  0.0000E+00   0.0000E+00  0.000E+00  0.000E+00  0.000E+00  1.08000E+03  0.000E+00  2.000E+01  2.000E-03  1.000E+00



 ..........LAKE  1 IS DRY..........

     SECTIONS OF THE LAKE BOTTOM HAVE BECOME DRY.  THE DRYSECTIONS
     LIE ABOVE THE FOLLOWING  1 AQUIFER CELLS (LAYER,ROW,COLUMN):
     (  2,  4,  5)  (

 PERIOD     2     TIME STEP     4     TIME STEP LENGTH  1.7520E+05
 PERIOD TIME  7.0080E+05     TOTAL SIMULATION TIME  3.3288E+06


                 HYDROLOGIC BUDGET SUMMARIES FOR SIMULATED LAKES
     (ALL FLUID FLUXES ARE VOLUMES ADDED TO THE LAKE DURING PRESENT TIME STEP)
     ----------------------------------------------------------------------------------------
 LAKE    STAGE         VOLUME     VOL. CHANGE      PRECIP     EVAPORATION    SPECIFIED RUNOFF     COMPUTED RUNOFF    TOTAL RUNOFF
   1  1.074500E+03  0.000000E+00  0.000000E+00  0.000000E+00  0.000000E+00   0.000000E+00          0.000000E+00      0.000000E+00

            GROUND WATER            SURFACE WATER        WATER          UZF INFIL.
 LAKE    INFLOW     OUTFLOW      INFLOW     OUTFLOW       USE        FROM LAKE
   1  0.0000E+00  0.0000E+00  0.0000E+00  0.0000E+00  0.0000E+00       0.0000E+00

      CONNECTED LAKE   TIME-STEP         STAGE-CHANGE          PERCENT
 LAKE    INFLUX      SURFACE AREA   TIME STEP  CUMULATIVE    DISCREPANCY
   1   0.0000E+00     0.0000E+00   0.0000E+00  0.0000E+00       0.000
 --------------------------------------------------------------------------------



            CUMULATIVE HYDROLOGIC BUDGET SUMMARIES FOR SIMULATED LAKES
     (ALL FLUID FLUXES ARE SUMS OF VOLUMES ADDED TO THE LAKE SINCE INITIAL TIME)
     ---------------------------------------------------------------------------
 LAKE       PRECIP       EVAP     SPECIFIED RUNOFF   COMPUTED RUNOFF   TOTAL RUNOFF
   1     0.0000E+00  0.0000E+00       0.0000E+00       0.0000E+00       0.0000E+00

            GROUND WATER            SURFACE WATER       UZF INFIL.
 LAKE    INFLOW     OUTFLOW      INFLOW     OUTFLOW     FROM LAKE
   1  0.0000E+00  0.0000E+00  0.0000E+00  0.0000E+00    0.0000E+00

         WATER    CONNECTED LAKE   CHANGE       PERCENT
 LAKE     USE         INFLUX       IN VOL.    DISCREPANCY
   1   0.0000E+00   0.0000E+00   0.0000E+00      0.000
 --------------------------------------------------------------------------------

 UBDSV3 SAVING "           GW ET" ON UNIT  61 AT TIME STEP     4, STRESS PERIOD   2
 UBDSV3 SAVING "    UZF RECHARGE" ON UNIT  61 AT TIME STEP     4, STRESS PERIOD   2
 UBDSV3 SAVING " SURFACE LEAKAGE" ON UNIT  61 AT TIME STEP     4, STRESS PERIOD   2
 UBDSV3 SAVING "       HORT+DUNN" ON UNIT  61 AT TIME STEP     4, STRESS PERIOD   2
 UBDSV3 SAVING "  STORAGE CHANGE" ON UNIT  61 AT TIME STEP     4, STRESS PERIOD   2


UNSATURATED ZONE PACKAGE VOLUMETRIC BUDGET FOR  TIME STEP     4 STRESS PERIOD    2
  ------------------------------------------------------------------------------



     CUMULATIVE VOLUMES      L**3       RATES FOR THIS TIME STEP      L**3/T
     ------------------                 ------------------------

           IN:                                      IN:
           ---                                      ---
        INFILTRATION =    49594740.0000          INFILTRATION =          67.6000

          OUT:                                     OUT:
          ----                                     ----
              UZF ET =    91531025.9966                UZF ET =         130.5636
        UZF RECHARGE =    32761339.4690          UZF RECHARGE =          42.4233

            IN - OUT =   -74697625.4656              IN - OUT =        -105.3869

          STORAGE:                                 STORAGE:
          --------                                 --------
      STORAGE CHANGE =   -74677890.7509        STORAGE CHANGE =        -105.3564

 PERCENT DISCREPANCY IS DIFFERENCE BETWEEN IN-OUT MINUS CHANGE IN STORAGE
 DIVIDED BY THE AVERAGE OF IN AND OUT TIMES 100

 PERCENT DISCREPANCY =          -0.00     PERCENT DISCREPANCY =          -0.02






1
  VOLUMETRIC BUDGET FOR ENTIRE MODEL AT END OF TIME STEP    4, STRESS PERIOD   2
  ------------------------------------------------------------------------------

     CUMULATIVE VOLUMES      L**3       RATES FOR THIS TIME STEP      L**3/T
     ------------------                 ------------------------

           IN:                                      IN:
           ---                                      ---
             STORAGE =     3622278.5000               STORAGE =           5.3099
       CONSTANT HEAD =           0.0000         CONSTANT HEAD =           0.0000
               WELLS =           0.0000                 WELLS =           0.0000
     HEAD DEP BOUNDS =      718489.6875       HEAD DEP BOUNDS =           0.2149
      STREAM LEAKAGE =   164489472.0000        STREAM LEAKAGE =          43.4765
       LAKE  SEEPAGE =           0.0000         LAKE  SEEPAGE =           0.0000
        UZF RECHARGE =    32761336.0000          UZF RECHARGE =          42.4233
               GW ET =           0.0000                 GW ET =           0.0000
     SURFACE LEAKAGE =           0.0000       SURFACE LEAKAGE =           0.0000

            TOTAL IN =   201591584.0000              TOTAL IN =          91.4246

          OUT:                                     OUT:
          ----                                     ----
             STORAGE =    31484270.0000               STORAGE =          43.0231
       CONSTANT HEAD =           0.0000         CONSTANT HEAD =           0.0000
               WELLS =    66576000.0000                 WELLS =          20.0000
     HEAD DEP BOUNDS =      954255.0625       HEAD DEP BOUNDS =           0.2872
      STREAM LEAKAGE =    57661864.0000        STREAM LEAKAGE =          17.7733
       LAKE  SEEPAGE =           0.0000         LAKE  SEEPAGE =           0.0000
        UZF RECHARGE =           0.0000          UZF RECHARGE =           0.0000
               GW ET =    44915772.0000                 GW ET =          10.3406
     SURFACE LEAKAGE =           0.0000       SURFACE LEAKAGE =           0.0000

           TOTAL OUT =   201592160.0000             TOTAL OUT =          91.4242

            IN - OUT =        -576.0000              IN - OUT =       3.2043E-04

 PERCENT DISCREPANCY =          -0.00     PERCENT DISCREPANCY =           0.00






         TIME SUMMARY AT END OF TIME STEP    4 IN STRESS PERIOD    2
                    SECONDS     MINUTES      HOURS       DAYS        YEARS
                    -----------------------------------------------------------
   TIME STEP LENGTH 1.75200E+05  2920.0      48.667      2.0278     5.55175E-03
 STRESS PERIOD TIME 7.00800E+05  11680.      194.67      8.1111     2.22070E-02
         TOTAL TIME 3.32880E+06  55480.      924.67      38.528     0.10548    
1
 
 SOLVING FOR HEAD 
                                                   Max.-Head-Change                         Max.-Flux-Residual
  Residual-Control   Outer-Iter.   Inner-Iter.     Column Row Layer    Maximum-Head-Change  Column Row Layer    Maximum-Flux-Residual          L2-NORM 
          0                 1           2             8    2     2       0.4773254793E-01       6    5    2        -0.1262498944E+01      0.4929908997E+01
          0                 2           2             6    5     2       0.4178290541E-02       6    5    2         0.1262435995E+00      0.1941966426E+00
          0                 3           1             6    5     2      -0.2395667812E-03       6    5    2        -0.7574671872E-02      0.1058135895E-01

    ------------------------------------------------
       NWT REQUIRED            3 OUTER ITERATIONS 
       AND A TOTAL OF          5 INNER ITERATIONS.
    ------------------------------------------------

 OUTPUT CONTROL FOR STRESS PERIOD    2   TIME STEP    5
    PRINT BUDGET
    SAVE BUDGET

            WELLS   PERIOD    2   STEP   5
 WELL      1   LAYER   2   ROW     6   COL     4   RATE    -2.00000    
 WELL      2   LAYER   2   ROW     6   COL     5   RATE    -2.00000    
 WELL      3   LAYER   2   ROW     7   COL     4   RATE    -2.00000    
 WELL      4   LAYER   2   ROW     7   COL     5   RATE    -2.00000    
 WELL      5   LAYER   2   ROW     8   COL     4   RATE    -2.00000    
 WELL      6   LAYER   2   ROW     8   COL     5   RATE    -2.00000    
 WELL      7   LAYER   2   ROW     9   COL     4   RATE    -2.00000    
 WELL      8   LAYER   2   ROW     9   COL     5   RATE    -2.00000    
 WELL      9   LAYER   2   ROW    10   COL     4   RATE    -2.00000    
 WELL     10   LAYER   2   ROW    10   COL     5   RATE    -2.00000    

  HEAD DEP BOUNDS   PERIOD    2   STEP     5
 BOUNDARY      1   LAYER   2   ROW    13   COL     1   RATE   -0.287312    
 BOUNDARY      2   LAYER   2   ROW    14   COL     9   RATE    0.214769    



 STREAM LISTING     PERIOD      2   STEP        5

 LAYER ROW COL. STREAM  RCH.  FLOW INTO     FLOW TO   FLOW OUT OF   OVRLND.     DIRECT     STREAM       STREAM     STREAM     STREAM   STREAMBED  STREAMBED
                SEG.NO.  NO.  STRM. RCH.    AQUIFER    STRM. RCH.    RUNOFF     PRECIP       ET          HEAD       DEPTH      WIDTH   CONDCTNC.   GRADIENT

   2    1    1     1     1    2.1000E+01  1.7959E+00   1.9204E+01  0.000E+00  0.000E+00  0.000E+00  1.09415E+03  1.102E+00  1.202E+01  5.410E-01  1.106E+00
   2    2    2     1     2    1.9204E+01  3.2007E+00   1.6003E+01  0.000E+00  0.000E+00  0.000E+00  1.08912E+03  1.060E+00  1.126E+01  7.883E-01  1.353E+00
   2    3    3     1     3    1.6003E+01  2.4809E+00   1.3523E+01  0.000E+00  0.000E+00  0.000E+00  1.08343E+03  1.007E+00  1.032E+01  6.191E-01  1.336E+00
   2    3    4     1     4    1.3523E+01  2.0856E+00   1.1437E+01  0.000E+00  0.000E+00  0.000E+00  1.07837E+03  9.596E-01  9.490E+00  5.267E-01  1.320E+00
   2    4    5     2     1    1.4370E+00  1.4370E+00   0.0000E+00  0.000E+00  0.000E+00  0.000E+00  1.07198E+03  4.895E-02  1.200E+01  7.800E-01  1.016E+00
   2    5    6     2     2    0.0000E+00  0.0000E+00   0.0000E+00  0.000E+00  0.000E+00  0.000E+00  1.06651E+03  0.000E+00  1.200E+01  6.000E-01  1.000E+00
   2    6    6     2     3    0.0000E+00  0.0000E+00   0.0000E+00  0.000E+00  0.000E+00  0.000E+00  1.06179E+03  0.000E+00  1.200E+01  6.000E-01  1.000E+00
   2    7    6     2     4    0.0000E+00  0.0000E+00   0.0000E+00  0.000E+00  0.000E+00  0.000E+00  1.05708E+03  0.000E+00  1.200E+01  6.000E-01  1.000E+00
   2    8    6     2     5    0.0000E+00  0.0000E+00   0.0000E+00  0.000E+00  0.000E+00  0.000E+00  1.05236E+03  0.000E+00  1.200E+01  6.000E-01  1.000E+00
   2    3    5     3     1    1.0000E+01  2.8252E+00   7.1748E+00  0.000E+00  0.000E+00  0.000E+00  1.07555E+03  1.909E+00  9.636E+00  7.227E-01  1.955E+00
   2    3    6     3     2    7.1748E+00  2.4905E+00   4.6843E+00  0.000E+00  0.000E+00  0.000E+00  1.07264E+03  1.727E+00  8.909E+00  6.682E-01  1.864E+00
   2    3    7     3     3    4.6843E+00  1.9718E+00   2.7125E+00  0.000E+00  0.000E+00  0.000E+00  1.06987E+03  1.555E+00  8.218E+00  5.547E-01  1.777E+00
   2    4    8     3     4    2.7125E+00  2.2567E+00   4.5579E-01  0.000E+00  0.000E+00  0.000E+00  1.06682E+03  1.364E+00  7.455E+00  6.709E-01  1.682E+00
   2    5    8     3     5    4.5579E-01  4.5579E-01   0.0000E+00  0.000E+00  0.000E+00  0.000E+00  1.06362E+03  0.000E+00  6.655E+00  4.991E-01  1.582E+00
   2    6    8     3     6    0.0000E+00  0.0000E+00   0.0000E+00  0.000E+00  0.000E+00  0.000E+00  1.06055E+03  0.000E+00  6.145E+00  1.844E-01  1.000E+00
   2    5   10     4     1    1.0000E+01  9.0525E-01   9.0947E+00  0.000E+00  0.000E+00  0.000E+00  1.07835E+03  6.210E-01  1.000E+01  2.500E-01  1.207E+00
   2    5    9     4     2    9.0947E+00  1.7835E+00   7.3113E+00  0.000E+00  0.000E+00  0.000E+00  1.07148E+03  5.670E-01  1.000E+01  5.000E-01  1.189E+00
   2    6    8     4     3    7.3113E+00  1.2257E+00   6.0855E+00  0.000E+00  0.000E+00  0.000E+00  1.06368E+03  5.021E-01  1.000E+01  3.500E-01  1.167E+00
   2    6    8     5     1    6.0855E+00  1.4716E+00   4.6139E+00  0.000E+00  0.000E+00  0.000E+00  1.05854E+03  5.396E-01  1.039E+01  4.158E-01  1.180E+00
   2    7    7     5     2    4.6139E+00  1.4897E+00   3.1242E+00  0.000E+00  0.000E+00  0.000E+00  1.05398E+03  4.817E-01  8.557E+00  4.279E-01  1.161E+00
   2    8    7     5     3    3.1242E+00  8.2855E-01   2.2957E+00  0.000E+00  0.000E+00  0.000E+00  1.04968E+03  4.253E-01  6.911E+00  2.419E-01  1.142E+00
   2    8    6     5     4    2.2957E+00  4.9455E-01   1.8011E+00  0.000E+00  0.000E+00  0.000E+00  1.04664E+03  3.856E-01  5.843E+00  1.461E-01  1.129E+00
   2    9    6     6     1    1.8011E+00  1.8011E+00   0.0000E+00  0.000E+00  0.000E+00  0.000E+00  1.04278E+03  5.669E-02  1.200E+01  6.000E-01  1.019E+00
   2   10    7     6     2    0.0000E+00  0.0000E+00   0.0000E+00  0.000E+00  0.000E+00  0.000E+00  1.03818E+03  0.000E+00  1.200E+01  6.000E-01  1.000E+00
   2   11    7     6     3    0.0000E+00  0.0000E+00   0.0000E+00  0.000E+00  0.000E+00  0.000E+00  1.03364E+03  0.000E+00  1.200E+01  6.000E-01  1.000E+00
   2   12    7     6     4    0.0000E+00  0.0000E+00   0.0000E+00  0.000E+00  0.000E+00  0.000E+00  1.02909E+03  0.000E+00  1.200E+01  6.000E-01  5.817E-01
   2   13    7     6     5    0.0000E+00 -7.2795E-01   7.2795E-01  0.000E+00  0.000E+00  0.000E+00  1.02601E+03  9.652E-02  1.200E+01  2.400E-01 -1.011E+00
   2   14    9     7     1    1.5000E+02  2.8854E+00   1.4711E+02  0.000E+00  0.000E+00  0.000E+00  1.03986E+03  2.284E+00  5.528E+01  5.591E+00  1.720E-01
   2   13    8     7     2    1.4711E+02  4.0247E+00   1.4309E+02  0.000E+00  0.000E+00  0.000E+00  1.03477E+03  2.265E+00  5.519E+01  6.140E+00  2.185E-01
   2   13    7     7     3    1.4309E+02  3.4852E+00   1.3960E+02  0.000E+00  0.000E+00  0.000E+00  1.02966E+03  2.245E+00  5.510E+01  5.572E+00  2.085E-01
   2   13    6     8     1    1.4033E+02  1.6140E+00   1.3872E+02  0.000E+00  0.000E+00  0.000E+00  1.02462E+03  2.741E+00  3.975E+01  4.051E+00  1.328E-01
   2   13    5     8     2    1.3872E+02 -1.6090E+00   1.4033E+02  0.000E+00  0.000E+00  0.000E+00  1.01837E+03  2.741E+00  3.975E+01  4.051E+00 -1.324E-01
   2   13    4     8     3    1.4033E+02 -4.6733E+00   1.4500E+02  0.000E+00  0.000E+00  0.000E+00  1.01214E+03  2.764E+00  4.008E+01  4.085E+00 -3.814E-01
   2   13    3     8     4    1.4500E+02 -5.4369E+00   1.5044E+02  0.000E+00  0.000E+00  0.000E+00  1.00593E+03  2.801E+00  4.061E+01  4.138E+00 -4.379E-01
   2   13    2     8     5    1.5044E+02 -3.3467E+00   1.5378E+02  0.000E+00  0.000E+00  0.000E+00  9.99707E+02  2.832E+00  4.106E+01  4.184E+00 -2.666E-01
   2   13    1     8     6    1.5378E+02 -2.1109E+00   1.5590E+02  0.000E+00  0.000E+00  0.000E+00  9.94726E+02  2.851E+00  4.133E+01  2.527E+00 -2.784E-01
   2    4    5     9     1    0.0000E+00  0.0000E+00   0.0000E+00  0.000E+00  0.000E+00  0.000E+00  1.06000E+03  0.000E+00  2.000E+01  2.000E-03  1.000E+00
   2    4    5    10     1    0.0000E+00  0.0000E+00   0.0000E+00  0.000E+00  0.000E+00  0.000E+00  1.08000E+03  0.000E+00  2.000E+01  2.000E-03  1.000E+00



 ..........LAKE  1 IS DRY..........

     SECTIONS OF THE LAKE BOTTOM HAVE BECOME DRY.  THE DRYSECTIONS
     LIE ABOVE THE FOLLOWING  1 AQUIFER CELLS (LAYER,ROW,COLUMN):
     (  2,  4,  5)  (

 PERIOD     2     TIME STEP     5     TIME STEP LENGTH  1.7520E+05
 PERIOD TIME  8.7600E+05     TOTAL SIMULATION TIME  3.5040E+06


                 HYDROLOGIC BUDGET SUMMARIES FOR SIMULATED LAKES
     (ALL FLUID FLUXES ARE VOLUMES ADDED TO THE LAKE DURING PRESENT TIME STEP)
     ----------------------------------------------------------------------------------------
 LAKE    STAGE         VOLUME     VOL. CHANGE      PRECIP     EVAPORATION    SPECIFIED RUNOFF     COMPUTED RUNOFF    TOTAL RUNOFF
   1  1.074500E+03  0.000000E+00  0.000000E+00  0.000000E+00  0.000000E+00   0.000000E+00          0.000000E+00      0.000000E+00

            GROUND WATER            SURFACE WATER        WATER          UZF INFIL.
 LAKE    INFLOW     OUTFLOW      INFLOW     OUTFLOW       USE        FROM LAKE
   1  0.0000E+00  0.0000E+00  0.0000E+00  0.0000E+00  0.0000E+00       0.0000E+00

      CONNECTED LAKE   TIME-STEP         STAGE-CHANGE          PERCENT
 LAKE    INFLUX      SURFACE AREA   TIME STEP  CUMULATIVE    DISCREPANCY
   1   0.0000E+00     0.0000E+00   0.0000E+00  0.0000E+00       0.000
 --------------------------------------------------------------------------------



            CUMULATIVE HYDROLOGIC BUDGET SUMMARIES FOR SIMULATED LAKES
     (ALL FLUID FLUXES ARE SUMS OF VOLUMES ADDED TO THE LAKE SINCE INITIAL TIME)
     ---------------------------------------------------------------------------
 LAKE       PRECIP       EVAP     SPECIFIED RUNOFF   COMPUTED RUNOFF   TOTAL RUNOFF
   1     0.0000E+00  0.0000E+00       0.0000E+00       0.0000E+00       0.0000E+00

            GROUND WATER            SURFACE WATER       UZF INFIL.
 LAKE    INFLOW     OUTFLOW      INFLOW     OUTFLOW     FROM LAKE
   1  0.0000E+00  0.0000E+00  0.0000E+00  0.0000E+00    0.0000E+00

         WATER    CONNECTED LAKE   CHANGE       PERCENT
 LAKE     USE         INFLUX       IN VOL.    DISCREPANCY
   1   0.0000E+00   0.0000E+00   0.0000E+00      0.000
 --------------------------------------------------------------------------------

 UBDSV3 SAVING "           GW ET" ON UNIT  61 AT TIME STEP     5, STRESS PERIOD   2
 UBDSV3 SAVING "    UZF RECHARGE" ON UNIT  61 AT TIME STEP     5, STRESS PERIOD   2
 UBDSV3 SAVING " SURFACE LEAKAGE" ON UNIT  61 AT TIME STEP     5, STRESS PERIOD   2
 UBDSV3 SAVING "       HORT+DUNN" ON UNIT  61 AT TIME STEP     5, STRESS PERIOD   2
 UBDSV3 SAVING "  STORAGE CHANGE" ON UNIT  61 AT TIME STEP     5, STRESS PERIOD   2


UNSATURATED ZONE PACKAGE VOLUMETRIC BUDGET FOR  TIME STEP     5 STRESS PERIOD    2
  ------------------------------------------------------------------------------



     CUMULATIVE VOLUMES      L**3       RATES FOR THIS TIME STEP      L**3/T
     ------------------                 ------------------------

           IN:                                      IN:
           ---                                      ---
        INFILTRATION =    61438260.0000          INFILTRATION =          67.6000

          OUT:                                     OUT:
          ----                                     ----
              UZF ET =   114401530.9287                UZF ET =         130.5394
        UZF RECHARGE =    40012359.1637          UZF RECHARGE =          41.3871

            IN - OUT =   -92975630.0924              IN - OUT =        -104.3265

          STORAGE:                                 STORAGE:
          --------                                 --------
      STORAGE CHANGE =   -92951614.6830        STORAGE CHANGE =        -104.3021

 PERCENT DISCREPANCY IS DIFFERENCE BETWEEN IN-OUT MINUS CHANGE IN STORAGE
 DIVIDED BY THE AVERAGE OF IN AND OUT TIMES 100

 PERCENT DISCREPANCY =          -0.00     PERCENT DISCREPANCY =          -0.01






1
  VOLUMETRIC BUDGET FOR ENTIRE MODEL AT END OF TIME STEP    5, STRESS PERIOD   2
  ------------------------------------------------------------------------------

     CUMULATIVE VOLUMES      L**3       RATES FOR THIS TIME STEP      L**3/T
     ------------------                 ------------------------

           IN:                                      IN:
           ---                                      ---
             STORAGE =     4585553.5000               STORAGE =           5.4981
       CONSTANT HEAD =           0.0000         CONSTANT HEAD =           0.0000
               WELLS =           0.0000                 WELLS =           0.0000
     HEAD DEP BOUNDS =      756117.1250       HEAD DEP BOUNDS =           0.2148
      STREAM LEAKAGE =   172024704.0000        STREAM LEAKAGE =          43.0093
       LAKE  SEEPAGE =           0.0000         LAKE  SEEPAGE =           0.0000
        UZF RECHARGE =    40012356.0000          UZF RECHARGE =          41.3871
               GW ET =           0.0000                 GW ET =           0.0000
     SURFACE LEAKAGE =           0.0000       SURFACE LEAKAGE =           0.0000

            TOTAL IN =   217378720.0000              TOTAL IN =          90.1094

          OUT:                                     OUT:
          ----                                     ----
             STORAGE =    38765176.0000               STORAGE =          41.5577
       CONSTANT HEAD =           0.0000         CONSTANT HEAD =           0.0000
               WELLS =    70080000.0000                 WELLS =          20.0000
     HEAD DEP BOUNDS =     1004592.1250       HEAD DEP BOUNDS =           0.2873
      STREAM LEAKAGE =    60798772.0000        STREAM LEAKAGE =          17.9047
       LAKE  SEEPAGE =           0.0000         LAKE  SEEPAGE =           0.0000
        UZF RECHARGE =           0.0000          UZF RECHARGE =           0.0000
               GW ET =    46730728.0000                 GW ET =          10.3593
     SURFACE LEAKAGE =           0.0000       SURFACE LEAKAGE =           0.0000

           TOTAL OUT =   217379264.0000             TOTAL OUT =          90.1091

            IN - OUT =        -544.0000              IN - OUT =       3.0518E-04

 PERCENT DISCREPANCY =          -0.00     PERCENT DISCREPANCY =           0.00






         TIME SUMMARY AT END OF TIME STEP    5 IN STRESS PERIOD    2
                    SECONDS     MINUTES      HOURS       DAYS        YEARS
                    -----------------------------------------------------------
   TIME STEP LENGTH 1.75200E+05  2920.0      48.667      2.0278     5.55175E-03
 STRESS PERIOD TIME 8.76000E+05  14600.      243.33      10.139     2.77588E-02
         TOTAL TIME 3.50400E+06  58400.      973.33      40.556     0.11104    
1
 
 SOLVING FOR HEAD 
                                                   Max.-Head-Change                         Max.-Flux-Residual
  Residual-Control   Outer-Iter.   Inner-Iter.     Column Row Layer    Maximum-Head-Change  Column Row Layer    Maximum-Flux-Residual          L2-NORM 
          0                 1           2             8    2     2       0.4772582645E-01       6    5    2        -0.1139515862E+01      0.4763651015E+01
          0                 2           2             6    5     2       0.3780955767E-02       6    5    2         0.1139464088E+00      0.1784549530E+00
          0                 3           1             6    5     2      -0.2163421937E-03       6    5    2        -0.6836830304E-02      0.9571194028E-02

    ------------------------------------------------
       NWT REQUIRED            3 OUTER ITERATIONS 
       AND A TOTAL OF          5 INNER ITERATIONS.
    ------------------------------------------------

 NO OUTPUT CONTROL FOR STRESS PERIOD    2   TIME STEP    6
 ..........LAKE  1 IS DRY..........
 
 SOLVING FOR HEAD 
                                                   Max.-Head-Change                         Max.-Flux-Residual
  Residual-Control   Outer-Iter.   Inner-Iter.     Column Row Layer    Maximum-Head-Change  Column Row Layer    Maximum-Flux-Residual          L2-NORM 
          0                 1           2             8    2     2       0.4771542982E-01       6    5    2        -0.1033951349E+01      0.4609955209E+01
          0                 2           2             6    5     2       0.3438917599E-02       6    5    2         0.1033908419E+00      0.1646578699E+00
          0                 3           1             6    5     2      -0.1963852986E-03       6    5    2        -0.6203488414E-02      0.8821836182E-02

    ------------------------------------------------
       NWT REQUIRED            3 OUTER ITERATIONS 
       AND A TOTAL OF          5 INNER ITERATIONS.
    ------------------------------------------------

 NO OUTPUT CONTROL FOR STRESS PERIOD    2   TIME STEP    7
 ..........LAKE  1 IS DRY..........
 
 SOLVING FOR HEAD 
                                                   Max.-Head-Change                         Max.-Flux-Residual
  Residual-Control   Outer-Iter.   Inner-Iter.     Column Row Layer    Maximum-Head-Change  Column Row Layer    Maximum-Flux-Residual          L2-NORM 
          0                 1           2             8    2     2       0.4770100586E-01       6    5    2         0.9840786017E+00      0.4357362094E+01
          0                 2           2             6    5     2      -0.2772476893E-02       6    5    2        -0.9063360294E-01      0.1242142124E+00
          0                 3           1             6    6     2      -0.6946960548E-04       6    6    2        -0.2335808271E-02      0.3195578436E-02

    ------------------------------------------------
       NWT REQUIRED            3 OUTER ITERATIONS 
       AND A TOTAL OF          5 INNER ITERATIONS.
    ------------------------------------------------

 NO OUTPUT CONTROL FOR STRESS PERIOD    2   TIME STEP    8
 ..........LAKE  1 IS DRY..........
 
 SOLVING FOR HEAD 
                                                   Max.-Head-Change                         Max.-Flux-Residual
  Residual-Control   Outer-Iter.   Inner-Iter.     Column Row Layer    Maximum-Head-Change  Column Row Layer    Maximum-Flux-Residual          L2-NORM 
          0                 1           2             8    2     2       0.4768341111E-01       6    5    2         0.8634031729E+00      0.4199878514E+01
          0                 2           2             6    5     2      -0.1435053312E-02       6    5    2        -0.4705536549E-01      0.8820513625E-01
          0                 3           1             6    5     2       0.2232834714E-04       6    5    2         0.7713762661E-03      0.1866278259E-02

    ------------------------------------------------
       NWT REQUIRED            3 OUTER ITERATIONS 
       AND A TOTAL OF          5 INNER ITERATIONS.
    ------------------------------------------------

 NO OUTPUT CONTROL FOR STRESS PERIOD    2   TIME STEP    9
 ..........LAKE  1 IS DRY..........
 
 SOLVING FOR HEAD 
                                                   Max.-Head-Change                         Max.-Flux-Residual
  Residual-Control   Outer-Iter.   Inner-Iter.     Column Row Layer    Maximum-Head-Change  Column Row Layer    Maximum-Flux-Residual          L2-NORM 
          0                 1           2             8    2     2       0.4764542777E-01       6    5    2         0.7087048355E+00      0.4060429032E+01
          0                 2           2             6    5     2      -0.1178146391E-02       6    5    2        -0.3841706921E-01      0.8167348013E-01
          0                 3           1             7   12     2       0.2202906077E-04       7   12    2         0.6405260324E-03      0.1914281373E-02

    ------------------------------------------------
       NWT REQUIRED            3 OUTER ITERATIONS 
       AND A TOTAL OF          5 INNER ITERATIONS.
    ------------------------------------------------

 OUTPUT CONTROL FOR STRESS PERIOD    2   TIME STEP   10
    PRINT BUDGET
    SAVE BUDGET

            WELLS   PERIOD    2   STEP  10
 WELL      1   LAYER   2   ROW     6   COL     4   RATE    -2.00000    
 WELL      2   LAYER   2   ROW     6   COL     5   RATE    -2.00000    
 WELL      3   LAYER   2   ROW     7   COL     4   RATE    -2.00000    
 WELL      4   LAYER   2   ROW     7   COL     5   RATE    -2.00000    
 WELL      5   LAYER   2   ROW     8   COL     4   RATE    -2.00000    
 WELL      6   LAYER   2   ROW     8   COL     5   RATE    -2.00000    
 WELL      7   LAYER   2   ROW     9   COL     4   RATE    -2.00000    
 WELL      8   LAYER   2   ROW     9   COL     5   RATE    -2.00000    
 WELL      9   LAYER   2   ROW    10   COL     4   RATE    -2.00000    
 WELL     10   LAYER   2   ROW    10   COL     5   RATE    -2.00000    

  HEAD DEP BOUNDS   PERIOD    2   STEP    10
 BOUNDARY      1   LAYER   2   ROW    13   COL     1   RATE   -0.288408    
 BOUNDARY      2   LAYER   2   ROW    14   COL     9   RATE    0.214321    



 STREAM LISTING     PERIOD      2   STEP       10

 LAYER ROW COL. STREAM  RCH.  FLOW INTO     FLOW TO   FLOW OUT OF   OVRLND.     DIRECT     STREAM       STREAM     STREAM     STREAM   STREAMBED  STREAMBED
                SEG.NO.  NO.  STRM. RCH.    AQUIFER    STRM. RCH.    RUNOFF     PRECIP       ET          HEAD       DEPTH      WIDTH   CONDCTNC.   GRADIENT

   2    1    1     1     1    2.6000E+01  1.9980E+00   2.4002E+01  0.000E+00  0.000E+00  0.000E+00  1.09423E+03  1.180E+00  1.306E+01  5.878E-01  1.133E+00
   2    2    2     1     2    2.4002E+01  3.6151E+00   2.0387E+01  0.000E+00  0.000E+00  0.000E+00  1.08920E+03  1.137E+00  1.248E+01  8.739E-01  1.379E+00
   2    3    3     1     3    2.0387E+01  2.8624E+00   1.7524E+01  0.000E+00  0.000E+00  0.000E+00  1.08350E+03  1.083E+00  1.168E+01  7.010E-01  1.361E+00
   2    3    4     1     4    1.7524E+01  2.4292E+00   1.5095E+01  0.000E+00  0.000E+00  0.000E+00  1.07844E+03  1.037E+00  1.084E+01  6.017E-01  1.346E+00
   2    4    5     2     1    5.0953E+00  2.6429E+00   2.4524E+00  0.000E+00  0.000E+00  0.000E+00  1.07232E+03  3.883E-01  1.200E+01  7.800E-01  1.129E+00
   2    5    6     2     2    2.4524E+00  1.9332E+00   5.1922E-01  0.000E+00  0.000E+00  0.000E+00  1.06673E+03  2.220E-01  1.200E+01  6.000E-01  1.074E+00
   2    6    6     2     3    5.1922E-01  5.1922E-01   0.0000E+00  0.000E+00  0.000E+00  0.000E+00  1.06182E+03  2.658E-02  1.200E+01  6.000E-01  1.009E+00
   2    7    6     2     4    0.0000E+00  0.0000E+00   0.0000E+00  0.000E+00  0.000E+00  0.000E+00  1.05708E+03  0.000E+00  1.200E+01  6.000E-01  1.000E+00
   2    8    6     2     5    0.0000E+00  0.0000E+00   0.0000E+00  0.000E+00  0.000E+00  0.000E+00  1.05236E+03  0.000E+00  1.200E+01  6.000E-01  1.000E+00
   2    3    5     3     1    1.0000E+01  2.8252E+00   7.1748E+00  0.000E+00  0.000E+00  0.000E+00  1.07555E+03  1.909E+00  9.636E+00  7.227E-01  1.955E+00
   2    3    6     3     2    7.1748E+00  2.4905E+00   4.6843E+00  0.000E+00  0.000E+00  0.000E+00  1.07264E+03  1.727E+00  8.909E+00  6.682E-01  1.864E+00
   2    3    7     3     3    4.6843E+00  1.9718E+00   2.7125E+00  0.000E+00  0.000E+00  0.000E+00  1.06987E+03  1.555E+00  8.218E+00  5.547E-01  1.777E+00
   2    4    8     3     4    2.7125E+00  2.2567E+00   4.5579E-01  0.000E+00  0.000E+00  0.000E+00  1.06682E+03  1.364E+00  7.455E+00  6.709E-01  1.682E+00
   2    5    8     3     5    4.5579E-01  4.5579E-01   0.0000E+00  0.000E+00  0.000E+00  0.000E+00  1.06362E+03  0.000E+00  6.655E+00  4.991E-01  1.582E+00
   2    6    8     3     6    0.0000E+00  0.0000E+00   0.0000E+00  0.000E+00  0.000E+00  0.000E+00  1.06055E+03  0.000E+00  6.145E+00  1.844E-01  1.000E+00
   2    5   10     4     1    1.0000E+01  9.0525E-01   9.0947E+00  0.000E+00  0.000E+00  0.000E+00  1.07835E+03  6.210E-01  1.000E+01  2.500E-01  1.207E+00
   2    5    9     4     2    9.0947E+00  1.7835E+00   7.3113E+00  0.000E+00  0.000E+00  0.000E+00  1.07148E+03  5.670E-01  1.000E+01  5.000E-01  1.189E+00
   2    6    8     4     3    7.3113E+00  1.2257E+00   6.0855E+00  0.000E+00  0.000E+00  0.000E+00  1.06368E+03  5.021E-01  1.000E+01  3.500E-01  1.167E+00
   2    6    8     5     1    6.0855E+00  1.4716E+00   4.6139E+00  0.000E+00  0.000E+00  0.000E+00  1.05854E+03  5.396E-01  1.039E+01  4.158E-01  1.180E+00
   2    7    7     5     2    4.6139E+00  1.4897E+00   3.1242E+00  0.000E+00  0.000E+00  0.000E+00  1.05398E+03  4.817E-01  8.557E+00  4.279E-01  1.161E+00
   2    8    7     5     3    3.1242E+00  8.2855E-01   2.2957E+00  0.000E+00  0.000E+00  0.000E+00  1.04968E+03  4.253E-01  6.911E+00  2.419E-01  1.142E+00
   2    8    6     5     4    2.2957E+00  4.9455E-01   1.8011E+00  0.000E+00  0.000E+00  0.000E+00  1.04664E+03  3.856E-01  5.843E+00  1.461E-01  1.129E+00
   2    9    6     6     1    1.8011E+00  1.8011E+00   0.0000E+00  0.000E+00  0.000E+00  0.000E+00  1.04278E+03  5.669E-02  1.200E+01  6.000E-01  1.019E+00
   2   10    7     6     2    0.0000E+00  0.0000E+00   0.0000E+00  0.000E+00  0.000E+00  0.000E+00  1.03818E+03  0.000E+00  1.200E+01  6.000E-01  1.000E+00
   2   11    7     6     3    0.0000E+00  0.0000E+00   0.0000E+00  0.000E+00  0.000E+00  0.000E+00  1.03364E+03  0.000E+00  1.200E+01  6.000E-01  1.000E+00
   2   12    7     6     4    0.0000E+00  0.0000E+00   0.0000E+00  0.000E+00  0.000E+00  0.000E+00  1.02909E+03  0.000E+00  1.200E+01  6.000E-01  5.665E-01
   2   13    7     6     5    0.0000E+00 -7.3130E-01   7.3130E-01  0.000E+00  0.000E+00  0.000E+00  1.02601E+03  9.679E-02  1.200E+01  2.400E-01 -1.016E+00
   2   14    9     7     1    1.5000E+02  2.8206E+00   1.4718E+02  0.000E+00  0.000E+00  0.000E+00  1.03986E+03  2.284E+00  5.528E+01  5.591E+00  1.682E-01
   2   13    8     7     2    1.4718E+02  3.9460E+00   1.4323E+02  0.000E+00  0.000E+00  0.000E+00  1.03477E+03  2.266E+00  5.520E+01  6.140E+00  2.142E-01
   2   13    7     7     3    1.4323E+02  3.4119E+00   1.3982E+02  0.000E+00  0.000E+00  0.000E+00  1.02967E+03  2.246E+00  5.511E+01  5.572E+00  2.041E-01
   2   13    6     8     1    1.4055E+02  1.5314E+00   1.3902E+02  0.000E+00  0.000E+00  0.000E+00  1.02462E+03  2.743E+00  3.978E+01  4.054E+00  1.259E-01
   2   13    5     8     2    1.3902E+02 -1.7503E+00   1.4077E+02  0.000E+00  0.000E+00  0.000E+00  1.01837E+03  2.744E+00  3.979E+01  4.055E+00 -1.439E-01
   2   13    4     8     3    1.4077E+02 -4.7939E+00   1.4557E+02  0.000E+00  0.000E+00  0.000E+00  1.01214E+03  2.768E+00  4.014E+01  4.090E+00 -3.907E-01
   2   13    3     8     4    1.4557E+02 -5.5574E+00   1.5112E+02  0.000E+00  0.000E+00  0.000E+00  1.00593E+03  2.805E+00  4.067E+01  4.145E+00 -4.469E-01
   2   13    2     8     5    1.5112E+02 -3.4162E+00   1.5454E+02  0.000E+00  0.000E+00  0.000E+00  9.99712E+02  2.837E+00  4.113E+01  4.191E+00 -2.717E-01
   2   13    1     8     6    1.5454E+02 -2.1742E+00   1.5671E+02  0.000E+00  0.000E+00  0.000E+00  9.94731E+02  2.856E+00  4.141E+01  2.532E+00 -2.862E-01
   2    4    5     9     1    0.0000E+00  0.0000E+00   0.0000E+00  0.000E+00  0.000E+00  0.000E+00  1.06000E+03  0.000E+00  2.000E+01  2.000E-03  1.000E+00
   2    4    5    10     1    0.0000E+00  0.0000E+00   0.0000E+00  0.000E+00  0.000E+00  0.000E+00  1.08000E+03  0.000E+00  2.000E+01  2.000E-03  1.000E+00



 ..........LAKE  1 IS DRY..........

     SECTIONS OF THE LAKE BOTTOM HAVE BECOME DRY.  THE DRYSECTIONS
     LIE ABOVE THE FOLLOWING  1 AQUIFER CELLS (LAYER,ROW,COLUMN):
     (  2,  4,  5)  (

 PERIOD     2     TIME STEP    10     TIME STEP LENGTH  1.7520E+05
 PERIOD TIME  1.7520E+06     TOTAL SIMULATION TIME  4.3800E+06


                 HYDROLOGIC BUDGET SUMMARIES FOR SIMULATED LAKES
     (ALL FLUID FLUXES ARE VOLUMES ADDED TO THE LAKE DURING PRESENT TIME STEP)
     ----------------------------------------------------------------------------------------
 LAKE    STAGE         VOLUME     VOL. CHANGE      PRECIP     EVAPORATION    SPECIFIED RUNOFF     COMPUTED RUNOFF    TOTAL RUNOFF
   1  1.074500E+03  0.000000E+00  0.000000E+00  0.000000E+00  0.000000E+00   0.000000E+00          0.000000E+00      0.000000E+00

            GROUND WATER            SURFACE WATER        WATER          UZF INFIL.
 LAKE    INFLOW     OUTFLOW      INFLOW     OUTFLOW       USE        FROM LAKE
   1  0.0000E+00  0.0000E+00  0.0000E+00  0.0000E+00  0.0000E+00       0.0000E+00

      CONNECTED LAKE   TIME-STEP         STAGE-CHANGE          PERCENT
 LAKE    INFLUX      SURFACE AREA   TIME STEP  CUMULATIVE    DISCREPANCY
   1   0.0000E+00     0.0000E+00   0.0000E+00  0.0000E+00       0.000
 --------------------------------------------------------------------------------



            CUMULATIVE HYDROLOGIC BUDGET SUMMARIES FOR SIMULATED LAKES
     (ALL FLUID FLUXES ARE SUMS OF VOLUMES ADDED TO THE LAKE SINCE INITIAL TIME)
     ---------------------------------------------------------------------------
 LAKE       PRECIP       EVAP     SPECIFIED RUNOFF   COMPUTED RUNOFF   TOTAL RUNOFF
   1     0.0000E+00  0.0000E+00       0.0000E+00       0.0000E+00       0.0000E+00

            GROUND WATER            SURFACE WATER       UZF INFIL.
 LAKE    INFLOW     OUTFLOW      INFLOW     OUTFLOW     FROM LAKE
   1  0.0000E+00  0.0000E+00  0.0000E+00  0.0000E+00    0.0000E+00

         WATER    CONNECTED LAKE   CHANGE       PERCENT
 LAKE     USE         INFLUX       IN VOL.    DISCREPANCY
   1   0.0000E+00   0.0000E+00   0.0000E+00      0.000
 --------------------------------------------------------------------------------

 UBDSV3 SAVING "           GW ET" ON UNIT  61 AT TIME STEP    10, STRESS PERIOD   2
 UBDSV3 SAVING "    UZF RECHARGE" ON UNIT  61 AT TIME STEP    10, STRESS PERIOD   2
 UBDSV3 SAVING " SURFACE LEAKAGE" ON UNIT  61 AT TIME STEP    10, STRESS PERIOD   2
 UBDSV3 SAVING "       HORT+DUNN" ON UNIT  61 AT TIME STEP    10, STRESS PERIOD   2
 UBDSV3 SAVING "  STORAGE CHANGE" ON UNIT  61 AT TIME STEP    10, STRESS PERIOD   2


UNSATURATED ZONE PACKAGE VOLUMETRIC BUDGET FOR  TIME STEP    10 STRESS PERIOD    2
  ------------------------------------------------------------------------------



     CUMULATIVE VOLUMES      L**3       RATES FOR THIS TIME STEP      L**3/T
     ------------------                 ------------------------

           IN:                                      IN:
           ---                                      ---
        INFILTRATION =   120655860.0000          INFILTRATION =          67.6000

          OUT:                                     OUT:
          ----                                     ----
              UZF ET =   228702302.4128                UZF ET =         130.4437
        UZF RECHARGE =    74159926.4277          UZF RECHARGE =          37.3116

            IN - OUT =  -182206368.8406              IN - OUT =        -100.1553

          STORAGE:                                 STORAGE:
          --------                                 --------
      STORAGE CHANGE =  -182169797.8153        STORAGE CHANGE =        -100.1403

 PERCENT DISCREPANCY IS DIFFERENCE BETWEEN IN-OUT MINUS CHANGE IN STORAGE
 DIVIDED BY THE AVERAGE OF IN AND OUT TIMES 100

 PERCENT DISCREPANCY =          -0.00     PERCENT DISCREPANCY =          -0.01






1
  VOLUMETRIC BUDGET FOR ENTIRE MODEL AT END OF TIME STEP   10, STRESS PERIOD   2
  ------------------------------------------------------------------------------

     CUMULATIVE VOLUMES      L**3       RATES FOR THIS TIME STEP      L**3/T
     ------------------                 ------------------------

           IN:                                      IN:
           ---                                      ---
             STORAGE =     7075144.0000               STORAGE =           0.9386
       CONSTANT HEAD =           0.0000         CONSTANT HEAD =           0.0000
               WELLS =           0.0000                 WELLS =           0.0000
     HEAD DEP BOUNDS =      943990.3125       HEAD DEP BOUNDS =           0.2143
      STREAM LEAKAGE =   212130272.0000        STREAM LEAKAGE =          47.7098
       LAKE  SEEPAGE =           0.0000         LAKE  SEEPAGE =           0.0000
        UZF RECHARGE =    74159920.0000          UZF RECHARGE =          37.3116
               GW ET =           0.0000                 GW ET =           0.0000
     SURFACE LEAKAGE =           0.0000       SURFACE LEAKAGE =           0.0000

            TOTAL IN =   294309312.0000              TOTAL IN =          86.1744

          OUT:                                     OUT:
          ----                                     ----
             STORAGE =    72834640.0000               STORAGE =          37.0326
       CONSTANT HEAD =           0.0000         CONSTANT HEAD =           0.0000
               WELLS =    87600000.0000                 WELLS =          20.0000
     HEAD DEP BOUNDS =     1256872.0000       HEAD DEP BOUNDS =           0.2884
      STREAM LEAKAGE =    76773296.0000        STREAM LEAKAGE =          18.4233
       LAKE  SEEPAGE =           0.0000         LAKE  SEEPAGE =           0.0000
        UZF RECHARGE =           0.0000          UZF RECHARGE =           0.0000
               GW ET =    55844908.0000                 GW ET =          10.4300
     SURFACE LEAKAGE =           0.0000       SURFACE LEAKAGE =           0.0000

           TOTAL OUT =   294309728.0000             TOTAL OUT =          86.1743

            IN - OUT =        -416.0000              IN - OUT =       5.3406E-05

 PERCENT DISCREPANCY =          -0.00     PERCENT DISCREPANCY =           0.00






         TIME SUMMARY AT END OF TIME STEP   10 IN STRESS PERIOD    2
                    SECONDS     MINUTES      HOURS       DAYS        YEARS
                    -----------------------------------------------------------
   TIME STEP LENGTH 1.75200E+05  2920.0      48.667      2.0278     5.55175E-03
 STRESS PERIOD TIME 1.75200E+06  29200.      486.67      20.278     5.55175E-02
         TOTAL TIME 4.38000E+06  73000.      1216.7      50.694     0.13879    
1
 
 SOLVING FOR HEAD 
                                                   Max.-Head-Change                         Max.-Flux-Residual
  Residual-Control   Outer-Iter.   Inner-Iter.     Column Row Layer    Maximum-Head-Change  Column Row Layer    Maximum-Flux-Residual          L2-NORM 
          0                 1           2             8    2     2       0.4758533492E-01       8    2    2         0.6186983831E+00      0.3973174095E+01
          0                 2           1             6    5     2      -0.9552457966E-03       6    5    2        -0.3136534227E-01      0.7793203603E-01

    ------------------------------------------------
       NWT REQUIRED            2 OUTER ITERATIONS 
       AND A TOTAL OF          3 INNER ITERATIONS.
    ------------------------------------------------

 NO OUTPUT CONTROL FOR STRESS PERIOD    2   TIME STEP   11
 ..........LAKE  1 IS DRY..........
 
 SOLVING FOR HEAD 
                                                   Max.-Head-Change                         Max.-Flux-Residual
  Residual-Control   Outer-Iter.   Inner-Iter.     Column Row Layer    Maximum-Head-Change  Column Row Layer    Maximum-Flux-Residual          L2-NORM 
          0                 1           2             8    2     2       0.4750689037E-01       8    2    2         0.6178869180E+00      0.3896214491E+01
          0                 2           1             6    6     2       0.1026163851E-02       6    6    2         0.3251620885E-01      0.7760815273E-01
          0                 3           1             7   12     2       0.2628946571E-04       3   12    2         0.7585597323E-03      0.2199526085E-02

    ------------------------------------------------
       NWT REQUIRED            3 OUTER ITERATIONS 
       AND A TOTAL OF          4 INNER ITERATIONS.
    ------------------------------------------------

 NO OUTPUT CONTROL FOR STRESS PERIOD    2   TIME STEP   12
 ..........LAKE  1 IS DRY..........
 
 SOLVING FOR HEAD 
                                                   Max.-Head-Change                         Max.-Flux-Residual
  Residual-Control   Outer-Iter.   Inner-Iter.     Column Row Layer    Maximum-Head-Change  Column Row Layer    Maximum-Flux-Residual          L2-NORM 
          0                 1           2             8    2     2       0.4741367072E-01       8    2    2         0.6168467182E+00      0.3787458717E+01
          0                 2           1             8    4     2      -0.9298367750E-03       6    6    2         0.2746802924E-01      0.7503926736E-01

    ------------------------------------------------
       NWT REQUIRED            2 OUTER ITERATIONS 
       AND A TOTAL OF          3 INNER ITERATIONS.
    ------------------------------------------------

 NO OUTPUT CONTROL FOR STRESS PERIOD    2   TIME STEP   13
 ..........LAKE  1 IS DRY..........
 
 SOLVING FOR HEAD 
                                                   Max.-Head-Change                         Max.-Flux-Residual
  Residual-Control   Outer-Iter.   Inner-Iter.     Column Row Layer    Maximum-Head-Change  Column Row Layer    Maximum-Flux-Residual          L2-NORM 
          0                 1           2             8    2     2       0.4730280365E-01       8    2    2         0.6156127779E+00      0.3661382475E+01
          0                 2           1             8    4     2      -0.9085272150E-03       6    6    2         0.2335026412E-01      0.7336783862E-01

    ------------------------------------------------
       NWT REQUIRED            2 OUTER ITERATIONS 
       AND A TOTAL OF          3 INNER ITERATIONS.
    ------------------------------------------------

 NO OUTPUT CONTROL FOR STRESS PERIOD    2   TIME STEP   14
 ..........LAKE  1 IS DRY..........
 
 SOLVING FOR HEAD 
                                                   Max.-Head-Change                         Max.-Flux-Residual
  Residual-Control   Outer-Iter.   Inner-Iter.     Column Row Layer    Maximum-Head-Change  Column Row Layer    Maximum-Flux-Residual          L2-NORM 
          0                 1           2             8    2     2       0.4717946712E-01       8    2    2         0.6141475877E+00      0.3555165742E+01
          0                 2           1             8    4     2      -0.8306234472E-03       6    6    2         0.1996360256E-01      0.7210544111E-01

    ------------------------------------------------
       NWT REQUIRED            2 OUTER ITERATIONS 
       AND A TOTAL OF          3 INNER ITERATIONS.
    ------------------------------------------------

 OUTPUT CONTROL FOR STRESS PERIOD    2   TIME STEP   15
    PRINT BUDGET
    PRINT HEAD FOR ALL LAYERS
    SAVE HEAD FOR ALL LAYERS
    SAVE BUDGET

            WELLS   PERIOD    2   STEP  15
 WELL      1   LAYER   2   ROW     6   COL     4   RATE    -2.00000    
 WELL      2   LAYER   2   ROW     6   COL     5   RATE    -2.00000    
 WELL      3   LAYER   2   ROW     7   COL     4   RATE    -2.00000    
 WELL      4   LAYER   2   ROW     7   COL     5   RATE    -2.00000    
 WELL      5   LAYER   2   ROW     8   COL     4   RATE    -2.00000    
 WELL      6   LAYER   2   ROW     8   COL     5   RATE    -2.00000    
 WELL      7   LAYER   2   ROW     9   COL     4   RATE    -2.00000    
 WELL      8   LAYER   2   ROW     9   COL     5   RATE    -2.00000    
 WELL      9   LAYER   2   ROW    10   COL     4   RATE    -2.00000    
 WELL     10   LAYER   2   ROW    10   COL     5   RATE    -2.00000    

  HEAD DEP BOUNDS   PERIOD    2   STEP    15
 BOUNDARY      1   LAYER   2   ROW    13   COL     1   RATE   -0.289189    
 BOUNDARY      2   LAYER   2   ROW    14   COL     9   RATE    0.214120    



 STREAM LISTING     PERIOD      2   STEP       15

 LAYER ROW COL. STREAM  RCH.  FLOW INTO     FLOW TO   FLOW OUT OF   OVRLND.     DIRECT     STREAM       STREAM     STREAM     STREAM   STREAMBED  STREAMBED
                SEG.NO.  NO.  STRM. RCH.    AQUIFER    STRM. RCH.    RUNOFF     PRECIP       ET          HEAD       DEPTH      WIDTH   CONDCTNC.   GRADIENT

   2    1    1     1     1    2.5000E+01  1.9559E+00   2.3044E+01  0.000E+00  0.000E+00  0.000E+00  1.09421E+03  1.165E+00  1.287E+01  5.790E-01  1.126E+00
   2    2    2     1     2    2.3044E+01  3.5443E+00   1.9500E+01  0.000E+00  0.000E+00  0.000E+00  1.08918E+03  1.122E+00  1.228E+01  8.599E-01  1.374E+00
   2    3    3     1     3    1.9500E+01  2.7880E+00   1.6712E+01  0.000E+00  0.000E+00  0.000E+00  1.08349E+03  1.069E+00  1.142E+01  6.852E-01  1.356E+00
   2    3    4     1     4    1.6712E+01  2.3622E+00   1.4350E+01  0.000E+00  0.000E+00  0.000E+00  1.07843E+03  1.022E+00  1.058E+01  5.873E-01  1.341E+00
   2    4    5     2     1    4.3496E+00  2.6064E+00   1.7432E+00  0.000E+00  0.000E+00  0.000E+00  1.07228E+03  3.415E-01  1.200E+01  7.800E-01  1.114E+00
   2    5    6     2     2    1.7432E+00  1.7432E+00   0.0000E+00  0.000E+00  0.000E+00  0.000E+00  1.06656E+03  5.497E-02  1.200E+01  6.000E-01  1.018E+00
   2    6    6     2     3    0.0000E+00  0.0000E+00   0.0000E+00  0.000E+00  0.000E+00  0.000E+00  1.06179E+03  0.000E+00  1.200E+01  6.000E-01  1.000E+00
   2    7    6     2     4    0.0000E+00  0.0000E+00   0.0000E+00  0.000E+00  0.000E+00  0.000E+00  1.05708E+03  0.000E+00  1.200E+01  6.000E-01  1.000E+00
   2    8    6     2     5    0.0000E+00  0.0000E+00   0.0000E+00  0.000E+00  0.000E+00  0.000E+00  1.05236E+03  0.000E+00  1.200E+01  6.000E-01  1.000E+00
   2    3    5     3     1    1.0000E+01  2.8252E+00   7.1748E+00  0.000E+00  0.000E+00  0.000E+00  1.07555E+03  1.909E+00  9.636E+00  7.227E-01  1.955E+00
   2    3    6     3     2    7.1748E+00  2.4905E+00   4.6843E+00  0.000E+00  0.000E+00  0.000E+00  1.07264E+03  1.727E+00  8.909E+00  6.682E-01  1.864E+00
   2    3    7     3     3    4.6843E+00  1.9718E+00   2.7125E+00  0.000E+00  0.000E+00  0.000E+00  1.06987E+03  1.555E+00  8.218E+00  5.547E-01  1.777E+00
   2    4    8     3     4    2.7125E+00  2.2567E+00   4.5579E-01  0.000E+00  0.000E+00  0.000E+00  1.06682E+03  1.364E+00  7.455E+00  6.709E-01  1.682E+00
   2    5    8     3     5    4.5579E-01  4.5579E-01   0.0000E+00  0.000E+00  0.000E+00  0.000E+00  1.06362E+03  0.000E+00  6.655E+00  4.991E-01  1.582E+00
   2    6    8     3     6    0.0000E+00  0.0000E+00   0.0000E+00  0.000E+00  0.000E+00  0.000E+00  1.06055E+03  0.000E+00  6.145E+00  1.844E-01  1.000E+00
   2    5   10     4     1    1.0000E+01  9.0525E-01   9.0947E+00  0.000E+00  0.000E+00  0.000E+00  1.07835E+03  6.210E-01  1.000E+01  2.500E-01  1.207E+00
   2    5    9     4     2    9.0947E+00  1.7835E+00   7.3113E+00  0.000E+00  0.000E+00  0.000E+00  1.07148E+03  5.670E-01  1.000E+01  5.000E-01  1.189E+00
   2    6    8     4     3    7.3113E+00  1.2257E+00   6.0855E+00  0.000E+00  0.000E+00  0.000E+00  1.06368E+03  5.021E-01  1.000E+01  3.500E-01  1.167E+00
   2    6    8     5     1    6.0855E+00  1.4716E+00   4.6139E+00  0.000E+00  0.000E+00  0.000E+00  1.05854E+03  5.396E-01  1.039E+01  4.158E-01  1.180E+00
   2    7    7     5     2    4.6139E+00  1.4897E+00   3.1242E+00  0.000E+00  0.000E+00  0.000E+00  1.05398E+03  4.817E-01  8.557E+00  4.279E-01  1.161E+00
   2    8    7     5     3    3.1242E+00  8.2855E-01   2.2957E+00  0.000E+00  0.000E+00  0.000E+00  1.04968E+03  4.253E-01  6.911E+00  2.419E-01  1.142E+00
   2    8    6     5     4    2.2957E+00  4.9455E-01   1.8011E+00  0.000E+00  0.000E+00  0.000E+00  1.04664E+03  3.856E-01  5.843E+00  1.461E-01  1.129E+00
   2    9    6     6     1    1.8011E+00  1.8011E+00   0.0000E+00  0.000E+00  0.000E+00  0.000E+00  1.04278E+03  5.669E-02  1.200E+01  6.000E-01  1.019E+00
   2   10    7     6     2    0.0000E+00  0.0000E+00   0.0000E+00  0.000E+00  0.000E+00  0.000E+00  1.03818E+03  0.000E+00  1.200E+01  6.000E-01  1.000E+00
   2   11    7     6     3    0.0000E+00  0.0000E+00   0.0000E+00  0.000E+00  0.000E+00  0.000E+00  1.03364E+03  0.000E+00  1.200E+01  6.000E-01  1.000E+00
   2   12    7     6     4    0.0000E+00  0.0000E+00   0.0000E+00  0.000E+00  0.000E+00  0.000E+00  1.02909E+03  0.000E+00  1.200E+01  6.000E-01  5.536E-01
   2   13    7     6     5    0.0000E+00 -7.3704E-01   7.3704E-01  0.000E+00  0.000E+00  0.000E+00  1.02601E+03  9.724E-02  1.200E+01  2.400E-01 -1.024E+00
   2   14    9     7     1    1.5000E+02  2.7914E+00   1.4721E+02  0.000E+00  0.000E+00  0.000E+00  1.03986E+03  2.284E+00  5.528E+01  5.591E+00  1.664E-01
   2   13    8     7     2    1.4721E+02  3.9031E+00   1.4331E+02  0.000E+00  0.000E+00  0.000E+00  1.03477E+03  2.266E+00  5.520E+01  6.141E+00  2.119E-01
   2   13    7     7     3    1.4331E+02  3.2803E+00   1.4003E+02  0.000E+00  0.000E+00  0.000E+00  1.02967E+03  2.247E+00  5.511E+01  5.573E+00  1.962E-01
   2   13    6     8     1    1.4076E+02  1.3899E+00   1.3937E+02  0.000E+00  0.000E+00  0.000E+00  1.02462E+03  2.745E+00  3.981E+01  4.057E+00  1.142E-01
   2   13    5     8     2    1.3937E+02 -1.8357E+00   1.4121E+02  0.000E+00  0.000E+00  0.000E+00  1.01837E+03  2.747E+00  3.983E+01  4.059E+00 -1.508E-01
   2   13    4     8     3    1.4121E+02 -4.8709E+00   1.4608E+02  0.000E+00  0.000E+00  0.000E+00  1.01215E+03  2.771E+00  4.019E+01  4.095E+00 -3.965E-01
   2   13    3     8     4    1.4608E+02 -5.6335E+00   1.5171E+02  0.000E+00  0.000E+00  0.000E+00  1.00593E+03  2.809E+00  4.073E+01  4.151E+00 -4.524E-01
   2   13    2     8     5    1.5171E+02 -3.4587E+00   1.5517E+02  0.000E+00  0.000E+00  0.000E+00  9.99716E+02  2.841E+00  4.119E+01  4.198E+00 -2.746E-01
   2   13    1     8     6    1.5517E+02 -2.2183E+00   1.5739E+02  0.000E+00  0.000E+00  0.000E+00  9.94736E+02  2.861E+00  4.148E+01  2.536E+00 -2.916E-01
   2    4    5     9     1    0.0000E+00  0.0000E+00   0.0000E+00  0.000E+00  0.000E+00  0.000E+00  1.06000E+03  0.000E+00  2.000E+01  2.000E-03  1.000E+00
   2    4    5    10     1    0.0000E+00  0.0000E+00   0.0000E+00  0.000E+00  0.000E+00  0.000E+00  1.08000E+03  0.000E+00  2.000E+01  2.000E-03  1.000E+00



 ..........LAKE  1 IS DRY..........

     SECTIONS OF THE LAKE BOTTOM HAVE BECOME DRY.  THE DRYSECTIONS
     LIE ABOVE THE FOLLOWING  1 AQUIFER CELLS (LAYER,ROW,COLUMN):
     (  2,  4,  5)  (

 PERIOD     2     TIME STEP    15     TIME STEP LENGTH  1.7520E+05
 PERIOD TIME  2.6280E+06     TOTAL SIMULATION TIME  5.2560E+06


                 HYDROLOGIC BUDGET SUMMARIES FOR SIMULATED LAKES
     (ALL FLUID FLUXES ARE VOLUMES ADDED TO THE LAKE DURING PRESENT TIME STEP)
     ----------------------------------------------------------------------------------------
 LAKE    STAGE         VOLUME     VOL. CHANGE      PRECIP     EVAPORATION    SPECIFIED RUNOFF     COMPUTED RUNOFF    TOTAL RUNOFF
   1  1.074500E+03  0.000000E+00  0.000000E+00  0.000000E+00  0.000000E+00   0.000000E+00          0.000000E+00      0.000000E+00

            GROUND WATER            SURFACE WATER        WATER          UZF INFIL.
 LAKE    INFLOW     OUTFLOW      INFLOW     OUTFLOW       USE        FROM LAKE
   1  0.0000E+00  0.0000E+00  0.0000E+00  0.0000E+00  0.0000E+00       0.0000E+00

      CONNECTED LAKE   TIME-STEP         STAGE-CHANGE          PERCENT
 LAKE    INFLUX      SURFACE AREA   TIME STEP  CUMULATIVE    DISCREPANCY
   1   0.0000E+00     0.0000E+00   0.0000E+00  0.0000E+00       0.000
 --------------------------------------------------------------------------------



            CUMULATIVE HYDROLOGIC BUDGET SUMMARIES FOR SIMULATED LAKES
     (ALL FLUID FLUXES ARE SUMS OF VOLUMES ADDED TO THE LAKE SINCE INITIAL TIME)
     ---------------------------------------------------------------------------
 LAKE       PRECIP       EVAP     SPECIFIED RUNOFF   COMPUTED RUNOFF   TOTAL RUNOFF
   1     0.0000E+00  0.0000E+00       0.0000E+00       0.0000E+00       0.0000E+00

            GROUND WATER            SURFACE WATER       UZF INFIL.
 LAKE    INFLOW     OUTFLOW      INFLOW     OUTFLOW     FROM LAKE
   1  0.0000E+00  0.0000E+00  0.0000E+00  0.0000E+00    0.0000E+00

         WATER    CONNECTED LAKE   CHANGE       PERCENT
 LAKE     USE         INFLUX       IN VOL.    DISCREPANCY
   1   0.0000E+00   0.0000E+00   0.0000E+00      0.000
 --------------------------------------------------------------------------------

 UBDSV3 SAVING "           GW ET" ON UNIT  61 AT TIME STEP    15, STRESS PERIOD   2
 UBDSV3 SAVING "    UZF RECHARGE" ON UNIT  61 AT TIME STEP    15, STRESS PERIOD   2
 UBDSV3 SAVING " SURFACE LEAKAGE" ON UNIT  61 AT TIME STEP    15, STRESS PERIOD   2
 UBDSV3 SAVING "       HORT+DUNN" ON UNIT  61 AT TIME STEP    15, STRESS PERIOD   2
 UBDSV3 SAVING "  STORAGE CHANGE" ON UNIT  61 AT TIME STEP    15, STRESS PERIOD   2


UNSATURATED ZONE PACKAGE VOLUMETRIC BUDGET FOR  TIME STEP    15 STRESS PERIOD    2
  ------------------------------------------------------------------------------



     CUMULATIVE VOLUMES      L**3       RATES FOR THIS TIME STEP      L**3/T
     ------------------                 ------------------------

           IN:                                      IN:
           ---                                      ---
        INFILTRATION =   179873460.0000          INFILTRATION =          67.6000

          OUT:                                     OUT:
          ----                                     ----
              UZF ET =   342389970.4102                UZF ET =         128.5233
        UZF RECHARGE =   105142522.2655          UZF RECHARGE =          33.4508

            IN - OUT =  -267659032.6757              IN - OUT =         -94.3741

          STORAGE:                                 STORAGE:
          --------                                 --------
      STORAGE CHANGE =  -267605442.7707        STORAGE CHANGE =         -94.3572

 PERCENT DISCREPANCY IS DIFFERENCE BETWEEN IN-OUT MINUS CHANGE IN STORAGE
 DIVIDED BY THE AVERAGE OF IN AND OUT TIMES 100

 PERCENT DISCREPANCY =          -0.00     PERCENT DISCREPANCY =          -0.01






1
              HEAD IN LAYER   1 AT END OF TIME STEP    15 IN STRESS PERIOD    2
  -----------------------------------------------------------------------------

           1       2       3       4       5       6       7       8       9      10
 ...................................................................................
   1  6999.00 6999.00 6999.00 6999.00 6999.00 6999.00 6999.00 6999.00 6999.00 6999.00
   2  6999.00 6999.00 6999.00 6999.00 6999.00 6999.00 6999.00 6999.00 6999.00 6999.00
   3  6999.00 6999.00 6999.00 6999.00 6999.00 6999.00 6999.00 6999.00 6999.00 6999.00
   4  6999.00 6999.00 6999.00 6999.00 6999.00 6999.00 6999.00 6999.00 6999.00 6999.00
   5  6999.00 6999.00 6999.00 6999.00 6999.00 6999.00 6999.00 6999.00 6999.00 6999.00
   6  6999.00 6999.00 6999.00 6999.00 6999.00 6999.00 6999.00 6999.00 6999.00 6999.00
   7  6999.00 6999.00 6999.00 6999.00 6999.00 6999.00 6999.00 6999.00 6999.00 6999.00
   8  6999.00 6999.00 6999.00 6999.00 6999.00 6999.00 6999.00 6999.00 6999.00 6999.00
   9  6999.00 6999.00 6999.00 6999.00 6999.00 6999.00 6999.00 6999.00 6999.00 6999.00
  10  6999.00 6999.00 6999.00 6999.00 6999.00 6999.00 6999.00 6999.00 6999.00 6999.00
  11  6999.00 6999.00 6999.00 6999.00 6999.00 6999.00 6999.00 6999.00 6999.00 6999.00
  12  6999.00 6999.00 6999.00 6999.00 6999.00 6999.00 6999.00 6999.00 6999.00 6999.00
  13  6999.00 6999.00 6999.00 6999.00 6999.00 6999.00 6999.00 6999.00 6999.00 6999.00
  14  6999.00 6999.00 6999.00 6999.00 6999.00 6999.00 6999.00 6999.00 6999.00 6999.00
  15  6999.00 6999.00 6999.00 6999.00 6999.00 6999.00 6999.00 6999.00 6999.00 6999.00
1
              HEAD IN LAYER   2 AT END OF TIME STEP    15 IN STRESS PERIOD    2
  -----------------------------------------------------------------------------

           1       2       3       4       5       6       7       8       9      10
 ...................................................................................
   1  1090.83 1085.46 6999.00 6999.00 6999.00 6999.00 6999.00 6999.00 6999.00 6999.00
   2  1085.81 1079.60 1072.73 6999.00 6999.00 1062.80 1062.80 1062.37 6999.00 6999.00
   3  6999.00 1069.22 1065.45 1061.55 1061.77 1062.19 1062.66 1061.65 6999.00 6999.00
   4  1057.16 1059.63 1058.65 1055.33 1054.16 1053.35 1054.94 1058.96 1057.55 6999.00
   5  1052.96 1052.52 1051.45 1049.56 1049.33 1049.74 1049.86 1051.60 1054.93 1057.15
   6  1048.79 1047.23 1045.67 1044.06 1044.31 1045.80 1047.18 1049.37 1052.07 1056.04
   7  1045.77 1042.39 1040.68 1039.26 1039.88 1041.79 1043.90 1046.16 1048.47 6999.00
   8  6999.00 1037.28 1036.08 1034.88 1035.62 1037.65 1039.51 1042.80 1043.59 6999.00
   9  6999.00 1031.62 1031.18 1030.46 1031.40 1033.63 1034.84 1037.02 1038.69 6999.00
  10  6999.00 1025.99 1026.28 1026.41 1027.68 1029.77 1031.00 1032.91 1034.81 1035.20
  11  6999.00 1019.26 1020.33 1022.78 1024.76 1026.99 1028.67 1030.84 1033.59 6999.00
  12  1003.03 1009.44 1013.54 1017.93 1021.50 1024.90 1027.43 1030.71 1034.46 6999.00
  13   995.61 1000.54 1007.29 1013.34 1018.82 1024.28 1029.08 1034.13 1036.67 6999.00
  14  6999.00 1006.52 1009.77 1014.56 1019.58 1024.50 1029.73 1035.16 1039.37 6999.00
  15  6999.00 6999.00 1013.40 1016.26 1020.02 1023.45 6999.00 6999.00 6999.00 6999.00

 HEAD WILL BE SAVED ON UNIT   58 AT END OF TIME STEP   15, STRESS PERIOD    2
1
  VOLUMETRIC BUDGET FOR ENTIRE MODEL AT END OF TIME STEP   15, STRESS PERIOD   2
  ------------------------------------------------------------------------------

     CUMULATIVE VOLUMES      L**3       RATES FOR THIS TIME STEP      L**3/T
     ------------------                 ------------------------

           IN:                                      IN:
           ---                                      ---
             STORAGE =     7906790.0000               STORAGE =           0.7925
       CONSTANT HEAD =           0.0000         CONSTANT HEAD =           0.0000
               WELLS =           0.0000                 WELLS =           0.0000
     HEAD DEP BOUNDS =     1131621.0000       HEAD DEP BOUNDS =           0.2141
      STREAM LEAKAGE =   252996688.0000        STREAM LEAKAGE =          46.3647
       LAKE  SEEPAGE =           0.0000         LAKE  SEEPAGE =           0.0000
        UZF RECHARGE =   105142520.0000          UZF RECHARGE =          33.4508
               GW ET =           0.0000                 GW ET =           0.0000
     SURFACE LEAKAGE =           0.0000       SURFACE LEAKAGE =           0.0000

            TOTAL IN =   367177632.0000              TOTAL IN =          80.8221

          OUT:                                     OUT:
          ----                                     ----
             STORAGE =   102396352.0000               STORAGE =          31.1503
       CONSTANT HEAD =           0.0000         CONSTANT HEAD =           0.0000
               WELLS =   105120000.0000                 WELLS =          20.0000
     HEAD DEP BOUNDS =     1509948.0000       HEAD DEP BOUNDS =           0.2892
      STREAM LEAKAGE =    93094584.0000        STREAM LEAKAGE =          18.7541
       LAKE  SEEPAGE =           0.0000         LAKE  SEEPAGE =           0.0000
        UZF RECHARGE =           0.0000          UZF RECHARGE =           0.0000
               GW ET =    65050344.0000                 GW ET =          10.6178
     SURFACE LEAKAGE =           0.0000       SURFACE LEAKAGE =           0.0000

           TOTAL OUT =   367171232.0000             TOTAL OUT =          80.8113

            IN - OUT =        6400.0000              IN - OUT =       1.0788E-02

 PERCENT DISCREPANCY =           0.00     PERCENT DISCREPANCY =           0.01






         TIME SUMMARY AT END OF TIME STEP   15 IN STRESS PERIOD    2
                    SECONDS     MINUTES      HOURS       DAYS        YEARS
                    -----------------------------------------------------------
   TIME STEP LENGTH 1.75200E+05  2920.0      48.667      2.0278     5.55175E-03
 STRESS PERIOD TIME 2.62800E+06  43800.      730.00      30.417     8.32763E-02
         TOTAL TIME 5.25600E+06  87600.      1460.0      60.833     0.16655    
1
1
                            STRESS PERIOD NO.    3, LENGTH =   2628000.    
                            -----------------------------------------------

                              NUMBER OF TIME STEPS =    15

                               MULTIPLIER FOR DELT =     1.000

                            INITIAL TIME STEP SIZE =   175200.0    

 WELL NO.  LAYER   ROW   COL   STRESS RATE         
 --------------------------------------------------
      1      2      6      4      -1.000    
      2      2      6      5      -1.000    
      3      2      7      4      -1.000    
      4      2      7      5      -1.000    
      5      2      8      4      -1.000    
      6      2      8      5      -1.000    
      7      2      9      4      -1.000    
      8      2      9      5      -1.000    
      9      2     10      4      -1.000    
     10      2     10      5      -1.000    

     10 WELLS

 REUSING NON-PARAMETER GHB CELLS FROM LAST STRESS PERIOD

      2 GHB CELLS

 REUSING STREAM SEGMENT DATA FROM LAST STRESS PERIOD



            AREAL INFILTRATION RATE
 READING ON UNIT   19 WITH FORMAT: (10F4.0)            

            1           2           3           4           5           6           7           8           9          10
 ........................................................................................................................
   1   1.0000E-08  2.0000E-08   0.000       0.000       0.000       0.000       0.000       0.000       0.000       0.000    
   2   2.0000E-08  1.0000E-08  2.0000E-08   0.000       0.000      8.0000E-08  8.0000E-08  5.0000E-08   0.000       0.000    
   3    0.000      5.0000E-08  1.0000E-08  1.0000E-08  8.0000E-08  8.0000E-08  5.0000E-08  5.0000E-08   0.000       0.000    
   4   8.0000E-08  5.0000E-08  1.0000E-08  1.0000E-08  1.0000E-08  1.0000E-08  1.0000E-08  1.0000E-08  2.0000E-08   0.000    
   5   8.0000E-08  5.0000E-08  1.0000E-08  1.0000E-08  1.0000E-08  1.0000E-08  1.0000E-08  1.0000E-08  1.0000E-08  1.0000E-08
   6   8.0000E-08  5.0000E-08  5.0000E-08  2.0000E-08  2.0000E-08  1.0000E-08  1.0000E-08  1.0000E-08  1.0000E-08  5.0000E-08
   7   8.0000E-08  5.0000E-08  5.0000E-08  2.0000E-08  2.0000E-08  1.0000E-08  1.0000E-08  2.0000E-08  2.0000E-08   0.000    
   8    0.000      5.0000E-08  5.0000E-08  2.0000E-08  2.0000E-08  1.0000E-08  1.0000E-08  2.0000E-08  5.0000E-08   0.000    
   9    0.000      5.0000E-08  5.0000E-08  2.0000E-08  2.0000E-08  1.0000E-08  1.0000E-08  2.0000E-08  5.0000E-08   0.000    
  10    0.000      5.0000E-08  5.0000E-08  2.0000E-08  2.0000E-08  1.0000E-08  1.0000E-08  2.0000E-08  5.0000E-08  8.0000E-08
  11    0.000      1.0000E-08  1.0000E-08  1.0000E-08  1.0000E-08  1.0000E-08  1.0000E-08  2.0000E-08  5.0000E-08   0.000    
  12   1.0000E-08  1.0000E-08  1.0000E-08  1.0000E-08  1.0000E-08  1.0000E-08  1.0000E-08  1.0000E-08  2.0000E-08   0.000    
  13   1.0000E-08  1.0000E-08  2.0000E-08  2.0000E-08  2.0000E-08  2.0000E-08  2.0000E-08  1.0000E-08  1.0000E-08   0.000    
  14    0.000      2.0000E-08  5.0000E-08  5.0000E-08  5.0000E-08  5.0000E-08  5.0000E-08  2.0000E-08  1.0000E-08   0.000    
  15    0.000       0.000      8.0000E-08  8.0000E-08  8.0000E-08  8.0000E-08   0.000       0.000       0.000       0.000    

USING ET RATE FROM PREVIOUS STRESS PERIOD. CURRENT PERIOD IS:       3

 USING ET EXTINCTION DEPTH FROM PREVIOUS STRESS PERIOD. CURRENT PERIOD IS:       3

 USING EXTINCTION WATER CONTENT FROM PREVIOUS STRESS PERIOD. CURRENT PERIOD IS:       3




 If any subsequent steady-state stress periods, min. and max. stages for each lake will be read in Record 9a.




 REUSING LAKE CONFIGURATION DATA FROM LAST STRESS PERIOD


 LAKE       PRECIP     EVAP     RUNOFF   WITHDRAW   BOTTOM     AREA
----------------------------------------------------------------------
   1     0.000E+00 4.000E-08 0.000E+00  0.000E+00 1.074E+03 2.500E+07




         C               INTERFACE CONDUCTANCES BETWEEN LAKE AND AQUIFER CELLS
   L     O          (IF TYPE = 6, CONDUCTANCE (L^2/T) IS BETWEEN AQUIFER CELL AND OVERLYING LAKE CELL.)
   A     L  L  T    (IF TYPE = 1 TO 4, CONDUCTANCES ARE PER UNIT SATURATED THICKNESS (L/T).)
   Y  R  U  A  Y
   E  O  M  K  P                        LAKEBED      C O N D U C T A N C E S
   R  W  N  E  E     DELTA Y   DELTA X  LEAKANCE   LAKEBED   AQUIFER  COMBINED
 _______________________________________________________________________________
   1  4  4  1  2    5.00E+03  5.00E+03  5.00E-02  2.50E+02  6.00E-03  6.00E-03
   1  3  5  1  3    5.00E+03  5.00E+03  5.00E-02  2.50E+02  1.20E-03  1.20E-03
   2  4  5  1  6    5.00E+03  5.00E+03  5.00E-02  1.25E+06  9.42E+00  9.42E+00
   1  5  5  1  4    5.00E+03  5.00E+03  5.00E-02  2.50E+02  6.00E-03  6.00E-03
   1  4  6  1  1    5.00E+03  5.00E+03  5.00E-02  2.50E+02  6.00E-03  6.00E-03
      LAKE     INFLOWING STREAM SEGMENT
         1                  9

 MAXIMUM NUMBER OF STREAMS INFLOWING TO A LAKE IS    1

      LAKE     OUTFLOWING STREAM SEGMENT
         1                 10

 MAXIMUM NUMBER OF STREAMS OUTFLOWING FROM A LAKE IS    1

 
 SOLVING FOR HEAD 
                                                   Max.-Head-Change                         Max.-Flux-Residual
  Residual-Control   Outer-Iter.   Inner-Iter.     Column Row Layer    Maximum-Head-Change  Column Row Layer    Maximum-Flux-Residual          L2-NORM 
          0                 1           2            10   10     2       0.4717051913E-01       4   10    2         0.1192035003E+01      0.4881054464E+01
          0                 2           2             4   10     2      -0.1990194130E-02       4   10    2        -0.5654920237E-01      0.1771392636E+00
          0                 3           1             7   12     2       0.3609217301E-04       3   12    2         0.1059232862E-02      0.3332917382E-02

    ------------------------------------------------
       NWT REQUIRED            3 OUTER ITERATIONS 
       AND A TOTAL OF          5 INNER ITERATIONS.
    ------------------------------------------------

 OUTPUT CONTROL FOR STRESS PERIOD    3   TIME STEP    1
    PRINT BUDGET
    SAVE BUDGET

            WELLS   PERIOD    3   STEP   1
 WELL      1   LAYER   2   ROW     6   COL     4   RATE    -1.00000    
 WELL      2   LAYER   2   ROW     6   COL     5   RATE    -1.00000    
 WELL      3   LAYER   2   ROW     7   COL     4   RATE    -1.00000    
 WELL      4   LAYER   2   ROW     7   COL     5   RATE    -1.00000    
 WELL      5   LAYER   2   ROW     8   COL     4   RATE    -1.00000    
 WELL      6   LAYER   2   ROW     8   COL     5   RATE    -1.00000    
 WELL      7   LAYER   2   ROW     9   COL     4   RATE    -1.00000    
 WELL      8   LAYER   2   ROW     9   COL     5   RATE    -1.00000    
 WELL      9   LAYER   2   ROW    10   COL     4   RATE    -1.00000    
 WELL     10   LAYER   2   ROW    10   COL     5   RATE    -1.00000    

  HEAD DEP BOUNDS   PERIOD    3   STEP     1
 BOUNDARY      1   LAYER   2   ROW    13   COL     1   RATE   -0.289313    
 BOUNDARY      2   LAYER   2   ROW    14   COL     9   RATE    0.214090    



 STREAM LISTING     PERIOD      3   STEP        1

 LAYER ROW COL. STREAM  RCH.  FLOW INTO     FLOW TO   FLOW OUT OF   OVRLND.     DIRECT     STREAM       STREAM     STREAM     STREAM   STREAMBED  STREAMBED
                SEG.NO.  NO.  STRM. RCH.    AQUIFER    STRM. RCH.    RUNOFF     PRECIP       ET          HEAD       DEPTH      WIDTH   CONDCTNC.   GRADIENT

   2    1    1     1     1    2.5000E+01  1.9554E+00   2.3045E+01  0.000E+00  0.000E+00  0.000E+00  1.09421E+03  1.165E+00  1.287E+01  5.790E-01  1.126E+00
   2    2    2     1     2    2.3045E+01  3.5443E+00   1.9500E+01  0.000E+00  0.000E+00  0.000E+00  1.08918E+03  1.122E+00  1.228E+01  8.599E-01  1.374E+00
   2    3    3     1     3    1.9500E+01  2.7881E+00   1.6712E+01  0.000E+00  0.000E+00  0.000E+00  1.08349E+03  1.069E+00  1.142E+01  6.852E-01  1.356E+00
   2    3    4     1     4    1.6712E+01  2.3622E+00   1.4350E+01  0.000E+00  0.000E+00  0.000E+00  1.07843E+03  1.022E+00  1.058E+01  5.873E-01  1.341E+00
   2    4    5     2     1    4.3500E+00  2.6064E+00   1.7436E+00  0.000E+00  0.000E+00  0.000E+00  1.07228E+03  3.415E-01  1.200E+01  7.800E-01  1.114E+00
   2    5    6     2     2    1.7436E+00  1.7436E+00   0.0000E+00  0.000E+00  0.000E+00  0.000E+00  1.06656E+03  5.498E-02  1.200E+01  6.000E-01  1.018E+00
   2    6    6     2     3    0.0000E+00  0.0000E+00   0.0000E+00  0.000E+00  0.000E+00  0.000E+00  1.06179E+03  0.000E+00  1.200E+01  6.000E-01  1.000E+00
   2    7    6     2     4    0.0000E+00  0.0000E+00   0.0000E+00  0.000E+00  0.000E+00  0.000E+00  1.05708E+03  0.000E+00  1.200E+01  6.000E-01  1.000E+00
   2    8    6     2     5    0.0000E+00  0.0000E+00   0.0000E+00  0.000E+00  0.000E+00  0.000E+00  1.05236E+03  0.000E+00  1.200E+01  6.000E-01  1.000E+00
   2    3    5     3     1    1.0000E+01  2.8252E+00   7.1748E+00  0.000E+00  0.000E+00  0.000E+00  1.07555E+03  1.909E+00  9.636E+00  7.227E-01  1.955E+00
   2    3    6     3     2    7.1748E+00  2.4905E+00   4.6843E+00  0.000E+00  0.000E+00  0.000E+00  1.07264E+03  1.727E+00  8.909E+00  6.682E-01  1.864E+00
   2    3    7     3     3    4.6843E+00  1.9718E+00   2.7125E+00  0.000E+00  0.000E+00  0.000E+00  1.06987E+03  1.555E+00  8.218E+00  5.547E-01  1.777E+00
   2    4    8     3     4    2.7125E+00  2.2567E+00   4.5579E-01  0.000E+00  0.000E+00  0.000E+00  1.06682E+03  1.364E+00  7.455E+00  6.709E-01  1.682E+00
   2    5    8     3     5    4.5579E-01  4.5579E-01   0.0000E+00  0.000E+00  0.000E+00  0.000E+00  1.06362E+03  0.000E+00  6.655E+00  4.991E-01  1.582E+00
   2    6    8     3     6    0.0000E+00  0.0000E+00   0.0000E+00  0.000E+00  0.000E+00  0.000E+00  1.06055E+03  0.000E+00  6.145E+00  1.844E-01  1.000E+00
   2    5   10     4     1    1.0000E+01  9.0525E-01   9.0947E+00  0.000E+00  0.000E+00  0.000E+00  1.07835E+03  6.210E-01  1.000E+01  2.500E-01  1.207E+00
   2    5    9     4     2    9.0947E+00  1.7835E+00   7.3113E+00  0.000E+00  0.000E+00  0.000E+00  1.07148E+03  5.670E-01  1.000E+01  5.000E-01  1.189E+00
   2    6    8     4     3    7.3113E+00  1.2257E+00   6.0855E+00  0.000E+00  0.000E+00  0.000E+00  1.06368E+03  5.021E-01  1.000E+01  3.500E-01  1.167E+00
   2    6    8     5     1    6.0855E+00  1.4716E+00   4.6139E+00  0.000E+00  0.000E+00  0.000E+00  1.05854E+03  5.396E-01  1.039E+01  4.158E-01  1.180E+00
   2    7    7     5     2    4.6139E+00  1.4897E+00   3.1242E+00  0.000E+00  0.000E+00  0.000E+00  1.05398E+03  4.817E-01  8.557E+00  4.279E-01  1.161E+00
   2    8    7     5     3    3.1242E+00  8.2855E-01   2.2957E+00  0.000E+00  0.000E+00  0.000E+00  1.04968E+03  4.253E-01  6.911E+00  2.419E-01  1.142E+00
   2    8    6     5     4    2.2957E+00  4.9455E-01   1.8011E+00  0.000E+00  0.000E+00  0.000E+00  1.04664E+03  3.856E-01  5.843E+00  1.461E-01  1.129E+00
   2    9    6     6     1    1.8011E+00  1.8011E+00   0.0000E+00  0.000E+00  0.000E+00  0.000E+00  1.04278E+03  5.669E-02  1.200E+01  6.000E-01  1.019E+00
   2   10    7     6     2    0.0000E+00  0.0000E+00   0.0000E+00  0.000E+00  0.000E+00  0.000E+00  1.03818E+03  0.000E+00  1.200E+01  6.000E-01  1.000E+00
   2   11    7     6     3    0.0000E+00  0.0000E+00   0.0000E+00  0.000E+00  0.000E+00  0.000E+00  1.03364E+03  0.000E+00  1.200E+01  6.000E-01  1.000E+00
   2   12    7     6     4    0.0000E+00  0.0000E+00   0.0000E+00  0.000E+00  0.000E+00  0.000E+00  1.02909E+03  0.000E+00  1.200E+01  6.000E-01  5.512E-01
   2   13    7     6     5    0.0000E+00 -7.3801E-01   7.3801E-01  0.000E+00  0.000E+00  0.000E+00  1.02601E+03  9.732E-02  1.200E+01  2.400E-01 -1.025E+00
   2   14    9     7     1    1.5000E+02  2.7872E+00   1.4721E+02  0.000E+00  0.000E+00  0.000E+00  1.03986E+03  2.284E+00  5.528E+01  5.591E+00  1.662E-01
   2   13    8     7     2    1.4721E+02  3.8963E+00   1.4332E+02  0.000E+00  0.000E+00  0.000E+00  1.03477E+03  2.266E+00  5.520E+01  6.141E+00  2.115E-01
   2   13    7     7     3    1.4332E+02  3.2580E+00   1.4006E+02  0.000E+00  0.000E+00  0.000E+00  1.02967E+03  2.247E+00  5.511E+01  5.573E+00  1.949E-01
   2   13    6     8     1    1.4080E+02  1.3706E+00   1.3943E+02  0.000E+00  0.000E+00  0.000E+00  1.02462E+03  2.746E+00  3.981E+01  4.057E+00  1.126E-01
   2   13    5     8     2    1.3943E+02 -1.8499E+00   1.4128E+02  0.000E+00  0.000E+00  0.000E+00  1.01837E+03  2.747E+00  3.984E+01  4.060E+00 -1.519E-01
   2   13    4     8     3    1.4128E+02 -4.8926E+00   1.4617E+02  0.000E+00  0.000E+00  0.000E+00  1.01215E+03  2.772E+00  4.019E+01  4.096E+00 -3.982E-01
   2   13    3     8     4    1.4617E+02 -5.6542E+00   1.5182E+02  0.000E+00  0.000E+00  0.000E+00  1.00593E+03  2.810E+00  4.074E+01  4.152E+00 -4.540E-01
   2   13    2     8     5    1.5182E+02 -3.4654E+00   1.5529E+02  0.000E+00  0.000E+00  0.000E+00  9.99717E+02  2.842E+00  4.120E+01  4.199E+00 -2.751E-01
   2   13    1     8     6    1.5529E+02 -2.2252E+00   1.5751E+02  0.000E+00  0.000E+00  0.000E+00  9.94736E+02  2.861E+00  4.149E+01  2.537E+00 -2.924E-01
   2    4    5     9     1    0.0000E+00  0.0000E+00   0.0000E+00  0.000E+00  0.000E+00  0.000E+00  1.06000E+03  0.000E+00  2.000E+01  2.000E-03  1.000E+00
   2    4    5    10     1    0.0000E+00  0.0000E+00   0.0000E+00  0.000E+00  0.000E+00  0.000E+00  1.08000E+03  0.000E+00  2.000E+01  2.000E-03  1.000E+00



 ..........LAKE  1 IS DRY..........

     SECTIONS OF THE LAKE BOTTOM HAVE BECOME DRY.  THE DRYSECTIONS
     LIE ABOVE THE FOLLOWING  1 AQUIFER CELLS (LAYER,ROW,COLUMN):
     (  2,  4,  5)  (

 PERIOD     3     TIME STEP     1     TIME STEP LENGTH  1.7520E+05
 PERIOD TIME  1.7520E+05     TOTAL SIMULATION TIME  5.4312E+06


                 HYDROLOGIC BUDGET SUMMARIES FOR SIMULATED LAKES
     (ALL FLUID FLUXES ARE VOLUMES ADDED TO THE LAKE DURING PRESENT TIME STEP)
     ----------------------------------------------------------------------------------------
 LAKE    STAGE         VOLUME     VOL. CHANGE      PRECIP     EVAPORATION    SPECIFIED RUNOFF     COMPUTED RUNOFF    TOTAL RUNOFF
   1  1.074500E+03  0.000000E+00  0.000000E+00  0.000000E+00  0.000000E+00   0.000000E+00          0.000000E+00      0.000000E+00

            GROUND WATER            SURFACE WATER        WATER          UZF INFIL.
 LAKE    INFLOW     OUTFLOW      INFLOW     OUTFLOW       USE        FROM LAKE
   1  0.0000E+00  0.0000E+00  0.0000E+00  0.0000E+00  0.0000E+00       0.0000E+00

      CONNECTED LAKE   TIME-STEP         STAGE-CHANGE          PERCENT
 LAKE    INFLUX      SURFACE AREA   TIME STEP  CUMULATIVE    DISCREPANCY
   1   0.0000E+00     0.0000E+00   0.0000E+00  0.0000E+00       0.000
 --------------------------------------------------------------------------------



            CUMULATIVE HYDROLOGIC BUDGET SUMMARIES FOR SIMULATED LAKES
     (ALL FLUID FLUXES ARE SUMS OF VOLUMES ADDED TO THE LAKE SINCE INITIAL TIME)
     ---------------------------------------------------------------------------
 LAKE       PRECIP       EVAP     SPECIFIED RUNOFF   COMPUTED RUNOFF   TOTAL RUNOFF
   1     0.0000E+00  0.0000E+00       0.0000E+00       0.0000E+00       0.0000E+00

            GROUND WATER            SURFACE WATER       UZF INFIL.
 LAKE    INFLOW     OUTFLOW      INFLOW     OUTFLOW     FROM LAKE
   1  0.0000E+00  0.0000E+00  0.0000E+00  0.0000E+00    0.0000E+00

         WATER    CONNECTED LAKE   CHANGE       PERCENT
 LAKE     USE         INFLUX       IN VOL.    DISCREPANCY
   1   0.0000E+00   0.0000E+00   0.0000E+00      0.000
 --------------------------------------------------------------------------------

 UBDSV3 SAVING "           GW ET" ON UNIT  61 AT TIME STEP     1, STRESS PERIOD   3
 UBDSV3 SAVING "    UZF RECHARGE" ON UNIT  61 AT TIME STEP     1, STRESS PERIOD   3
 UBDSV3 SAVING " SURFACE LEAKAGE" ON UNIT  61 AT TIME STEP     1, STRESS PERIOD   3
 UBDSV3 SAVING "       HORT+DUNN" ON UNIT  61 AT TIME STEP     1, STRESS PERIOD   3
 UBDSV3 SAVING "  STORAGE CHANGE" ON UNIT  61 AT TIME STEP     1, STRESS PERIOD   3


UNSATURATED ZONE PACKAGE VOLUMETRIC BUDGET FOR  TIME STEP     1 STRESS PERIOD    3
  ------------------------------------------------------------------------------



     CUMULATIVE VOLUMES      L**3       RATES FOR THIS TIME STEP      L**3/T
     ------------------                 ------------------------

           IN:                                      IN:
           ---                                      ---
        INFILTRATION =   194677860.0000          INFILTRATION =          84.5000

          OUT:                                     OUT:
          ----                                     ----
              UZF ET =   364613473.9060                UZF ET =         126.8465
        UZF RECHARGE =   111020712.5873          UZF RECHARGE =          33.5513

            IN - OUT =  -280956326.4933              IN - OUT =         -75.8978

          STORAGE:                                 STORAGE:
          --------                                 --------
      STORAGE CHANGE =  -280899257.3907        STORAGE CHANGE =         -75.8779

 PERCENT DISCREPANCY IS DIFFERENCE BETWEEN IN-OUT MINUS CHANGE IN STORAGE
 DIVIDED BY THE AVERAGE OF IN AND OUT TIMES 100

 PERCENT DISCREPANCY =          -0.00     PERCENT DISCREPANCY =          -0.01






1
  VOLUMETRIC BUDGET FOR ENTIRE MODEL AT END OF TIME STEP    1, STRESS PERIOD   3
  ------------------------------------------------------------------------------

     CUMULATIVE VOLUMES      L**3       RATES FOR THIS TIME STEP      L**3/T
     ------------------                 ------------------------

           IN:                                      IN:
           ---                                      ---
             STORAGE =     7987996.0000               STORAGE =           0.4635
       CONSTANT HEAD =           0.0000         CONSTANT HEAD =           0.0000
               WELLS =           0.0000                 WELLS =           0.0000
     HEAD DEP BOUNDS =     1169129.6250       HEAD DEP BOUNDS =           0.2141
      STREAM LEAKAGE =   261110560.0000        STREAM LEAKAGE =          46.3120
       LAKE  SEEPAGE =           0.0000         LAKE  SEEPAGE =           0.0000
        UZF RECHARGE =   111020712.0000          UZF RECHARGE =          33.5513
               GW ET =           0.0000                 GW ET =           0.0000
     SURFACE LEAKAGE =           0.0000       SURFACE LEAKAGE =           0.0000

            TOTAL IN =   381288384.0000              TOTAL IN =          80.5409

          OUT:                                     OUT:
          ----                                     ----
             STORAGE =   109532320.0000               STORAGE =          40.7304
       CONSTANT HEAD =           0.0000         CONSTANT HEAD =           0.0000
               WELLS =   106872000.0000                 WELLS =          10.0000
     HEAD DEP BOUNDS =     1560635.6250       HEAD DEP BOUNDS =           0.2893
      STREAM LEAKAGE =    96392760.0000        STREAM LEAKAGE =          18.8252
       LAKE  SEEPAGE =           0.0000         LAKE  SEEPAGE =           0.0000
        UZF RECHARGE =           0.0000          UZF RECHARGE =           0.0000
               GW ET =    66924288.0000                 GW ET =          10.6960
     SURFACE LEAKAGE =           0.0000       SURFACE LEAKAGE =           0.0000

           TOTAL OUT =   381282016.0000             TOTAL OUT =          80.5409

            IN - OUT =        6368.0000              IN - OUT =      -2.2888E-05

 PERCENT DISCREPANCY =           0.00     PERCENT DISCREPANCY =          -0.00






         TIME SUMMARY AT END OF TIME STEP    1 IN STRESS PERIOD    3
                    SECONDS     MINUTES      HOURS       DAYS        YEARS
                    -----------------------------------------------------------
   TIME STEP LENGTH 1.75200E+05  2920.0      48.667      2.0278     5.55175E-03
 STRESS PERIOD TIME 1.75200E+05  2920.0      48.667      2.0278     5.55175E-03
         TOTAL TIME 5.43120E+06  90520.      1508.7      62.861     0.17210    
1
 
 SOLVING FOR HEAD 
                                                   Max.-Head-Change                         Max.-Flux-Residual
  Residual-Control   Outer-Iter.   Inner-Iter.     Column Row Layer    Maximum-Head-Change  Column Row Layer    Maximum-Flux-Residual          L2-NORM 
          0                 1           2            10   10     2       0.4716614739E-01       4    9    2         0.1163240259E+01      0.4730208297E+01
          0                 2           2             4    9     2      -0.1943156536E-02       4   10    2        -0.5398798204E-01      0.1707400603E+00
          0                 3           1             7   11     2       0.3871174503E-04       3   12    2         0.1137834205E-02      0.3469087170E-02

    ------------------------------------------------
       NWT REQUIRED            3 OUTER ITERATIONS 
       AND A TOTAL OF          5 INNER ITERATIONS.
    ------------------------------------------------

 NO OUTPUT CONTROL FOR STRESS PERIOD    3   TIME STEP    2
 ..........LAKE  1 IS DRY..........
 
 SOLVING FOR HEAD 
                                                   Max.-Head-Change                         Max.-Flux-Residual
  Residual-Control   Outer-Iter.   Inner-Iter.     Column Row Layer    Maximum-Head-Change  Column Row Layer    Maximum-Flux-Residual          L2-NORM 
          0                 1           2            10   10     2       0.4716078576E-01       4    9    2         0.1146545542E+01      0.4568627818E+01
          0                 2           2             4    9     2      -0.1916463322E-02       4    9    2        -0.5271710528E-01      0.1585058898E+00
          0                 3           1             3   12     2       0.2811672403E-04       3   12    2         0.8443206520E-03      0.2224726001E-02

    ------------------------------------------------
       NWT REQUIRED            3 OUTER ITERATIONS 
       AND A TOTAL OF          5 INNER ITERATIONS.
    ------------------------------------------------

 NO OUTPUT CONTROL FOR STRESS PERIOD    3   TIME STEP    3
 ..........LAKE  1 IS DRY..........
 
 SOLVING FOR HEAD 
                                                   Max.-Head-Change                         Max.-Flux-Residual
  Residual-Control   Outer-Iter.   Inner-Iter.     Column Row Layer    Maximum-Head-Change  Column Row Layer    Maximum-Flux-Residual          L2-NORM 
          0                 1           2            10   10     2       0.4715443488E-01       4    9    2         0.1127577643E+01      0.4548748028E+01
          0                 2           2             4    9     2      -0.1884911018E-02       4    9    2        -0.5194292767E-01      0.1614087621E+00
          0                 3           1             2    2     2       0.2737931482E-04       3   12    2         0.7983382434E-03      0.2318230524E-02

    ------------------------------------------------
       NWT REQUIRED            3 OUTER ITERATIONS 
       AND A TOTAL OF          5 INNER ITERATIONS.
    ------------------------------------------------

 NO OUTPUT CONTROL FOR STRESS PERIOD    3   TIME STEP    4
 ..........LAKE  1 IS DRY..........
 
 SOLVING FOR HEAD 
                                                   Max.-Head-Change                         Max.-Flux-Residual
  Residual-Control   Outer-Iter.   Inner-Iter.     Column Row Layer    Maximum-Head-Change  Column Row Layer    Maximum-Flux-Residual          L2-NORM 
          0                 1           2            10   10     2       0.4714701450E-01       4    9    2         0.1107062374E+01      0.4441266405E+01
          0                 2           2             4    9     2      -0.1851960235E-02       4    9    2        -0.5109516921E-01      0.1581105335E+00
          0                 3           1             2    2     2       0.2960511811E-04       2    2    2         0.8618839706E-03      0.2280725955E-02

    ------------------------------------------------
       NWT REQUIRED            3 OUTER ITERATIONS 
       AND A TOTAL OF          5 INNER ITERATIONS.
    ------------------------------------------------

 OUTPUT CONTROL FOR STRESS PERIOD    3   TIME STEP    5
    PRINT BUDGET
    SAVE BUDGET

            WELLS   PERIOD    3   STEP   5
 WELL      1   LAYER   2   ROW     6   COL     4   RATE    -1.00000    
 WELL      2   LAYER   2   ROW     6   COL     5   RATE    -1.00000    
 WELL      3   LAYER   2   ROW     7   COL     4   RATE    -1.00000    
 WELL      4   LAYER   2   ROW     7   COL     5   RATE    -1.00000    
 WELL      5   LAYER   2   ROW     8   COL     4   RATE    -1.00000    
 WELL      6   LAYER   2   ROW     8   COL     5   RATE    -1.00000    
 WELL      7   LAYER   2   ROW     9   COL     4   RATE    -1.00000    
 WELL      8   LAYER   2   ROW     9   COL     5   RATE    -1.00000    
 WELL      9   LAYER   2   ROW    10   COL     4   RATE    -1.00000    
 WELL     10   LAYER   2   ROW    10   COL     5   RATE    -1.00000    

  HEAD DEP BOUNDS   PERIOD    3   STEP     5
 BOUNDARY      1   LAYER   2   ROW    13   COL     1   RATE   -0.289850    
 BOUNDARY      2   LAYER   2   ROW    14   COL     9   RATE    0.214364    



 STREAM LISTING     PERIOD      3   STEP        5

 LAYER ROW COL. STREAM  RCH.  FLOW INTO     FLOW TO   FLOW OUT OF   OVRLND.     DIRECT     STREAM       STREAM     STREAM     STREAM   STREAMBED  STREAMBED
                SEG.NO.  NO.  STRM. RCH.    AQUIFER    STRM. RCH.    RUNOFF     PRECIP       ET          HEAD       DEPTH      WIDTH   CONDCTNC.   GRADIENT

   2    1    1     1     1    2.7000E+01  2.0322E+00   2.4968E+01  0.000E+00  0.000E+00  0.000E+00  1.09424E+03  1.195E+00  1.326E+01  5.965E-01  1.136E+00
   2    2    2     1     2    2.4968E+01  3.6852E+00   2.1283E+01  0.000E+00  0.000E+00  0.000E+00  1.08921E+03  1.152E+00  1.268E+01  8.877E-01  1.384E+00
   2    3    3     1     3    2.1283E+01  2.9362E+00   1.8346E+01  0.000E+00  0.000E+00  0.000E+00  1.08352E+03  1.097E+00  1.194E+01  7.167E-01  1.366E+00
   2    3    4     1     4    1.8346E+01  2.4957E+00   1.5851E+01  0.000E+00  0.000E+00  0.000E+00  1.07846E+03  1.051E+00  1.110E+01  6.160E-01  1.350E+00
   2    4    5     2     1    5.8507E+00  2.6772E+00   3.1735E+00  0.000E+00  0.000E+00  0.000E+00  1.07237E+03  4.323E-01  1.200E+01  7.800E-01  1.144E+00
   2    5    6     2     2    3.1735E+00  1.9681E+00   1.2055E+00  0.000E+00  0.000E+00  0.000E+00  1.06679E+03  2.801E-01  1.200E+01  6.000E-01  1.093E+00
   2    6    6     2     3    1.2055E+00  1.2055E+00   0.0000E+00  0.000E+00  0.000E+00  0.000E+00  1.06184E+03  4.406E-02  1.200E+01  6.000E-01  1.015E+00
   2    7    6     2     4    0.0000E+00  0.0000E+00   0.0000E+00  0.000E+00  0.000E+00  0.000E+00  1.05708E+03  0.000E+00  1.200E+01  6.000E-01  1.000E+00
   2    8    6     2     5    0.0000E+00  0.0000E+00   0.0000E+00  0.000E+00  0.000E+00  0.000E+00  1.05236E+03  0.000E+00  1.200E+01  6.000E-01  1.000E+00
   2    3    5     3     1    1.0000E+01  2.8252E+00   7.1748E+00  0.000E+00  0.000E+00  0.000E+00  1.07555E+03  1.909E+00  9.636E+00  7.227E-01  1.955E+00
   2    3    6     3     2    7.1748E+00  2.4905E+00   4.6843E+00  0.000E+00  0.000E+00  0.000E+00  1.07264E+03  1.727E+00  8.909E+00  6.682E-01  1.864E+00
   2    3    7     3     3    4.6843E+00  1.9718E+00   2.7125E+00  0.000E+00  0.000E+00  0.000E+00  1.06987E+03  1.555E+00  8.218E+00  5.547E-01  1.777E+00
   2    4    8     3     4    2.7125E+00  2.2567E+00   4.5579E-01  0.000E+00  0.000E+00  0.000E+00  1.06682E+03  1.364E+00  7.455E+00  6.709E-01  1.682E+00
   2    5    8     3     5    4.5579E-01  4.5579E-01   0.0000E+00  0.000E+00  0.000E+00  0.000E+00  1.06362E+03  0.000E+00  6.655E+00  4.991E-01  1.582E+00
   2    6    8     3     6    0.0000E+00  0.0000E+00   0.0000E+00  0.000E+00  0.000E+00  0.000E+00  1.06055E+03  0.000E+00  6.145E+00  1.844E-01  1.000E+00
   2    5   10     4     1    1.0000E+01  9.0525E-01   9.0947E+00  0.000E+00  0.000E+00  0.000E+00  1.07835E+03  6.210E-01  1.000E+01  2.500E-01  1.207E+00
   2    5    9     4     2    9.0947E+00  1.7835E+00   7.3113E+00  0.000E+00  0.000E+00  0.000E+00  1.07148E+03  5.670E-01  1.000E+01  5.000E-01  1.189E+00
   2    6    8     4     3    7.3113E+00  1.2257E+00   6.0855E+00  0.000E+00  0.000E+00  0.000E+00  1.06368E+03  5.021E-01  1.000E+01  3.500E-01  1.167E+00
   2    6    8     5     1    6.0855E+00  1.4716E+00   4.6139E+00  0.000E+00  0.000E+00  0.000E+00  1.05854E+03  5.396E-01  1.039E+01  4.158E-01  1.180E+00
   2    7    7     5     2    4.6139E+00  1.4897E+00   3.1242E+00  0.000E+00  0.000E+00  0.000E+00  1.05398E+03  4.817E-01  8.557E+00  4.279E-01  1.161E+00
   2    8    7     5     3    3.1242E+00  8.2855E-01   2.2957E+00  0.000E+00  0.000E+00  0.000E+00  1.04968E+03  4.253E-01  6.911E+00  2.419E-01  1.142E+00
   2    8    6     5     4    2.2957E+00  4.9455E-01   1.8011E+00  0.000E+00  0.000E+00  0.000E+00  1.04664E+03  3.856E-01  5.843E+00  1.461E-01  1.129E+00
   2    9    6     6     1    1.8011E+00  1.8011E+00   0.0000E+00  0.000E+00  0.000E+00  0.000E+00  1.04278E+03  5.669E-02  1.200E+01  6.000E-01  1.019E+00
   2   10    7     6     2    0.0000E+00  0.0000E+00   0.0000E+00  0.000E+00  0.000E+00  0.000E+00  1.03818E+03  0.000E+00  1.200E+01  6.000E-01  1.000E+00
   2   11    7     6     3    0.0000E+00  0.0000E+00   0.0000E+00  0.000E+00  0.000E+00  0.000E+00  1.03364E+03  0.000E+00  1.200E+01  6.000E-01  1.000E+00
   2   12    7     6     4    0.0000E+00  0.0000E+00   0.0000E+00  0.000E+00  0.000E+00  0.000E+00  1.02909E+03  0.000E+00  1.200E+01  6.000E-01  5.468E-01
   2   13    7     6     5    0.0000E+00 -7.4050E-01   7.4050E-01  0.000E+00  0.000E+00  0.000E+00  1.02601E+03  9.751E-02  1.200E+01  2.400E-01 -1.028E+00
   2   14    9     7     1    1.5000E+02  2.8268E+00   1.4717E+02  0.000E+00  0.000E+00  0.000E+00  1.03986E+03  2.284E+00  5.528E+01  5.591E+00  1.685E-01
   2   13    8     7     2    1.4717E+02  3.9139E+00   1.4326E+02  0.000E+00  0.000E+00  0.000E+00  1.03477E+03  2.266E+00  5.520E+01  6.140E+00  2.125E-01
   2   13    7     7     3    1.4326E+02  3.1982E+00   1.4006E+02  0.000E+00  0.000E+00  0.000E+00  1.02967E+03  2.247E+00  5.511E+01  5.573E+00  1.913E-01
   2   13    6     8     1    1.4080E+02  1.3054E+00   1.3950E+02  0.000E+00  0.000E+00  0.000E+00  1.02462E+03  2.746E+00  3.982E+01  4.057E+00  1.072E-01
   2   13    5     8     2    1.3950E+02 -1.9299E+00   1.4143E+02  0.000E+00  0.000E+00  0.000E+00  1.01837E+03  2.748E+00  3.985E+01  4.061E+00 -1.584E-01
   2   13    4     8     3    1.4143E+02 -4.9687E+00   1.4639E+02  0.000E+00  0.000E+00  0.000E+00  1.01215E+03  2.773E+00  4.021E+01  4.098E+00 -4.042E-01
   2   13    3     8     4    1.4639E+02 -5.7282E+00   1.5212E+02  0.000E+00  0.000E+00  0.000E+00  1.00594E+03  2.812E+00  4.077E+01  4.154E+00 -4.596E-01
   2   13    2     8     5    1.5212E+02 -3.4701E+00   1.5559E+02  0.000E+00  0.000E+00  0.000E+00  9.99719E+02  2.844E+00  4.123E+01  4.202E+00 -2.753E-01
   2   13    1     8     6    1.5559E+02 -2.2572E+00   1.5785E+02  0.000E+00  0.000E+00  0.000E+00  9.94739E+02  2.864E+00  4.152E+01  2.539E+00 -2.964E-01
   2    4    5     9     1    0.0000E+00  0.0000E+00   0.0000E+00  0.000E+00  0.000E+00  0.000E+00  1.06000E+03  0.000E+00  2.000E+01  2.000E-03  1.000E+00
   2    4    5    10     1    0.0000E+00  0.0000E+00   0.0000E+00  0.000E+00  0.000E+00  0.000E+00  1.08000E+03  0.000E+00  2.000E+01  2.000E-03  1.000E+00



 ..........LAKE  1 IS DRY..........

     SECTIONS OF THE LAKE BOTTOM HAVE BECOME DRY.  THE DRYSECTIONS
     LIE ABOVE THE FOLLOWING  1 AQUIFER CELLS (LAYER,ROW,COLUMN):
     (  2,  4,  5)  (

 PERIOD     3     TIME STEP     5     TIME STEP LENGTH  1.7520E+05
 PERIOD TIME  8.7600E+05     TOTAL SIMULATION TIME  6.1320E+06


                 HYDROLOGIC BUDGET SUMMARIES FOR SIMULATED LAKES
     (ALL FLUID FLUXES ARE VOLUMES ADDED TO THE LAKE DURING PRESENT TIME STEP)
     ----------------------------------------------------------------------------------------
 LAKE    STAGE         VOLUME     VOL. CHANGE      PRECIP     EVAPORATION    SPECIFIED RUNOFF     COMPUTED RUNOFF    TOTAL RUNOFF
   1  1.074500E+03  0.000000E+00  0.000000E+00  0.000000E+00  0.000000E+00   0.000000E+00          0.000000E+00      0.000000E+00

            GROUND WATER            SURFACE WATER        WATER          UZF INFIL.
 LAKE    INFLOW     OUTFLOW      INFLOW     OUTFLOW       USE        FROM LAKE
   1  0.0000E+00  0.0000E+00  0.0000E+00  0.0000E+00  0.0000E+00       0.0000E+00

      CONNECTED LAKE   TIME-STEP         STAGE-CHANGE          PERCENT
 LAKE    INFLUX      SURFACE AREA   TIME STEP  CUMULATIVE    DISCREPANCY
   1   0.0000E+00     0.0000E+00   0.0000E+00  0.0000E+00       0.000
 --------------------------------------------------------------------------------



            CUMULATIVE HYDROLOGIC BUDGET SUMMARIES FOR SIMULATED LAKES
     (ALL FLUID FLUXES ARE SUMS OF VOLUMES ADDED TO THE LAKE SINCE INITIAL TIME)
     ---------------------------------------------------------------------------
 LAKE       PRECIP       EVAP     SPECIFIED RUNOFF   COMPUTED RUNOFF   TOTAL RUNOFF
   1     0.0000E+00  0.0000E+00       0.0000E+00       0.0000E+00       0.0000E+00

            GROUND WATER            SURFACE WATER       UZF INFIL.
 LAKE    INFLOW     OUTFLOW      INFLOW     OUTFLOW     FROM LAKE
   1  0.0000E+00  0.0000E+00  0.0000E+00  0.0000E+00    0.0000E+00

         WATER    CONNECTED LAKE   CHANGE       PERCENT
 LAKE     USE         INFLUX       IN VOL.    DISCREPANCY
   1   0.0000E+00   0.0000E+00   0.0000E+00      0.000
 --------------------------------------------------------------------------------

 UBDSV3 SAVING "           GW ET" ON UNIT  61 AT TIME STEP     5, STRESS PERIOD   3
 UBDSV3 SAVING "    UZF RECHARGE" ON UNIT  61 AT TIME STEP     5, STRESS PERIOD   3
 UBDSV3 SAVING " SURFACE LEAKAGE" ON UNIT  61 AT TIME STEP     5, STRESS PERIOD   3
 UBDSV3 SAVING "       HORT+DUNN" ON UNIT  61 AT TIME STEP     5, STRESS PERIOD   3
 UBDSV3 SAVING "  STORAGE CHANGE" ON UNIT  61 AT TIME STEP     5, STRESS PERIOD   3


UNSATURATED ZONE PACKAGE VOLUMETRIC BUDGET FOR  TIME STEP     5 STRESS PERIOD    3
  ------------------------------------------------------------------------------



     CUMULATIVE VOLUMES      L**3       RATES FOR THIS TIME STEP      L**3/T
     ------------------                 ------------------------

           IN:                                      IN:
           ---                                      ---
        INFILTRATION =   253895460.0000          INFILTRATION =          84.5000

          OUT:                                     OUT:
          ----                                     ----
              UZF ET =   417364880.1013                UZF ET =          56.7872
        UZF RECHARGE =   133088497.2590          UZF RECHARGE =          30.2159

            IN - OUT =  -296557917.3604              IN - OUT =          -2.5031

          STORAGE:                                 STORAGE:
          --------                                 --------
      STORAGE CHANGE =  -296492048.7348        STORAGE CHANGE =          -2.4928

 PERCENT DISCREPANCY IS DIFFERENCE BETWEEN IN-OUT MINUS CHANGE IN STORAGE
 DIVIDED BY THE AVERAGE OF IN AND OUT TIMES 100

 PERCENT DISCREPANCY =          -0.00     PERCENT DISCREPANCY =          -0.01






1
  VOLUMETRIC BUDGET FOR ENTIRE MODEL AT END OF TIME STEP    5, STRESS PERIOD   3
  ------------------------------------------------------------------------------

     CUMULATIVE VOLUMES      L**3       RATES FOR THIS TIME STEP      L**3/T
     ------------------                 ------------------------

           IN:                                      IN:
           ---                                      ---
             STORAGE =     8227684.0000               STORAGE =           0.2189
       CONSTANT HEAD =           0.0000         CONSTANT HEAD =           0.0000
               WELLS =           0.0000                 WELLS =           0.0000
     HEAD DEP BOUNDS =     1319255.3750       HEAD DEP BOUNDS =           0.2144
      STREAM LEAKAGE =   294191424.0000        STREAM LEAKAGE =          48.2444
       LAKE  SEEPAGE =           0.0000         LAKE  SEEPAGE =           0.0000
        UZF RECHARGE =   133088496.0000          UZF RECHARGE =          30.2159
               GW ET =           0.0000                 GW ET =           0.0000
     SURFACE LEAKAGE =           0.0000       SURFACE LEAKAGE =           0.0000

            TOTAL IN =   436826880.0000              TOTAL IN =          78.8935

          OUT:                                     OUT:
          ----                                     ----
             STORAGE =   135934000.0000               STORAGE =          36.6653
       CONSTANT HEAD =           0.0000         CONSTANT HEAD =           0.0000
               WELLS =   113880000.0000                 WELLS =          10.0000
     HEAD DEP BOUNDS =     1763611.1250       HEAD DEP BOUNDS =           0.2899
      STREAM LEAKAGE =   109711032.0000        STREAM LEAKAGE =          19.0945
       LAKE  SEEPAGE =           0.0000         LAKE  SEEPAGE =           0.0000
        UZF RECHARGE =           0.0000          UZF RECHARGE =           0.0000
               GW ET =    75531784.0000                 GW ET =          12.8438
     SURFACE LEAKAGE =           0.0000       SURFACE LEAKAGE =           0.0000

           TOTAL OUT =   436820416.0000             TOTAL OUT =          78.8934

            IN - OUT =        6464.0000              IN - OUT =       9.9182E-05

 PERCENT DISCREPANCY =           0.00     PERCENT DISCREPANCY =           0.00






         TIME SUMMARY AT END OF TIME STEP    5 IN STRESS PERIOD    3
                    SECONDS     MINUTES      HOURS       DAYS        YEARS
                    -----------------------------------------------------------
   TIME STEP LENGTH 1.75200E+05  2920.0      48.667      2.0278     5.55175E-03
 STRESS PERIOD TIME 8.76000E+05  14600.      243.33      10.139     2.77588E-02
         TOTAL TIME 6.13200E+06 1.02200E+05  1703.3      70.972     0.19431    
1
 
 SOLVING FOR HEAD 
                                                   Max.-Head-Change                         Max.-Flux-Residual
  Residual-Control   Outer-Iter.   Inner-Iter.     Column Row Layer    Maximum-Head-Change  Column Row Layer    Maximum-Flux-Residual          L2-NORM 
          0                 1           2            10   10     2       0.4713845763E-01       4    9    2         0.1085032953E+01      0.4345180560E+01
          0                 2           2             4    9     2      -0.1814948740E-02       4    9    2        -0.5012887010E-01      0.1537357796E+00
          0                 3           1             2    2     2       0.2881823128E-04       2    2    2         0.8388601113E-03      0.2239968579E-02

    ------------------------------------------------
       NWT REQUIRED            3 OUTER ITERATIONS 
       AND A TOTAL OF          5 INNER ITERATIONS.
    ------------------------------------------------

 NO OUTPUT CONTROL FOR STRESS PERIOD    3   TIME STEP    6
 ..........LAKE  1 IS DRY..........
 
 SOLVING FOR HEAD 
                                                   Max.-Head-Change                         Max.-Flux-Residual
  Residual-Control   Outer-Iter.   Inner-Iter.     Column Row Layer    Maximum-Head-Change  Column Row Layer    Maximum-Flux-Residual          L2-NORM 
          0                 1           2             6    3     2       0.5732839573E-01       4    9    2         0.1062487967E+01      0.4199556712E+01
          0                 2           2             4    9     2      -0.1778472118E-02       4    9    2        -0.4915599244E-01      0.1447064069E+00
          0                 3           1             3   12     2       0.2566981916E-04       3   12    2         0.7647285174E-03      0.2089135922E-02

    ------------------------------------------------
       NWT REQUIRED            3 OUTER ITERATIONS 
       AND A TOTAL OF          5 INNER ITERATIONS.
    ------------------------------------------------

 NO OUTPUT CONTROL FOR STRESS PERIOD    3   TIME STEP    7
 ..........LAKE  1 IS DRY..........
 
 SOLVING FOR HEAD 
                                                   Max.-Head-Change                         Max.-Flux-Residual
  Residual-Control   Outer-Iter.   Inner-Iter.     Column Row Layer    Maximum-Head-Change  Column Row Layer    Maximum-Flux-Residual          L2-NORM 
          0                 1           2             6    3     2       0.5584935904E-01       4    9    2         0.1039078536E+01      0.4165311437E+01
          0                 2           2             4    9     2      -0.1739142802E-02       4    9    2        -0.4809846148E-01      0.1470646709E+00
          0                 3           1             3   12     2       0.2519844276E-04       6   11    2         0.7600399022E-03      0.2285646163E-02

    ------------------------------------------------
       NWT REQUIRED            3 OUTER ITERATIONS 
       AND A TOTAL OF          5 INNER ITERATIONS.
    ------------------------------------------------

 NO OUTPUT CONTROL FOR STRESS PERIOD    3   TIME STEP    8
 ..........LAKE  1 IS DRY..........
 
 SOLVING FOR HEAD 
                                                   Max.-Head-Change                         Max.-Flux-Residual
  Residual-Control   Outer-Iter.   Inner-Iter.     Column Row Layer    Maximum-Head-Change  Column Row Layer    Maximum-Flux-Residual          L2-NORM 
          0                 1           2             6    3     2       0.5447499133E-01       4    8    2         0.1017821224E+01      0.4045834627E+01
          0                 2           2             4    8     2      -0.1703049315E-02       4    9    2        -0.4705665576E-01      0.1420789657E+00
          0                 3           1             6   11     2       0.2600799607E-04       6   11    2         0.7923385342E-03      0.2280896480E-02

    ------------------------------------------------
       NWT REQUIRED            3 OUTER ITERATIONS 
       AND A TOTAL OF          5 INNER ITERATIONS.
    ------------------------------------------------

 NO OUTPUT CONTROL FOR STRESS PERIOD    3   TIME STEP    9
 ..........LAKE  1 IS DRY..........
 
 SOLVING FOR HEAD 
                                                   Max.-Head-Change                         Max.-Flux-Residual
  Residual-Control   Outer-Iter.   Inner-Iter.     Column Row Layer    Maximum-Head-Change  Column Row Layer    Maximum-Flux-Residual          L2-NORM 
          0                 1           2             6    3     2       0.5311742016E-01       4    8    2         0.9971118394E+00      0.3907981907E+01
          0                 2           2             4    8     2      -0.1668602397E-02       4    8    2        -0.4606724321E-01      0.1381051809E+00
          0                 3           1             6   11     2       0.2733147759E-04       6   11    2         0.8269939094E-03      0.2327881081E-02

    ------------------------------------------------
       NWT REQUIRED            3 OUTER ITERATIONS 
       AND A TOTAL OF          5 INNER ITERATIONS.
    ------------------------------------------------

 OUTPUT CONTROL FOR STRESS PERIOD    3   TIME STEP   10
    PRINT BUDGET
    SAVE BUDGET

            WELLS   PERIOD    3   STEP  10
 WELL      1   LAYER   2   ROW     6   COL     4   RATE    -1.00000    
 WELL      2   LAYER   2   ROW     6   COL     5   RATE    -1.00000    
 WELL      3   LAYER   2   ROW     7   COL     4   RATE    -1.00000    
 WELL      4   LAYER   2   ROW     7   COL     5   RATE    -1.00000    
 WELL      5   LAYER   2   ROW     8   COL     4   RATE    -1.00000    
 WELL      6   LAYER   2   ROW     8   COL     5   RATE    -1.00000    
 WELL      7   LAYER   2   ROW     9   COL     4   RATE    -1.00000    
 WELL      8   LAYER   2   ROW     9   COL     5   RATE    -1.00000    
 WELL      9   LAYER   2   ROW    10   COL     4   RATE    -1.00000    
 WELL     10   LAYER   2   ROW    10   COL     5   RATE    -1.00000    

  HEAD DEP BOUNDS   PERIOD    3   STEP    10
 BOUNDARY      1   LAYER   2   ROW    13   COL     1   RATE   -0.290385    
 BOUNDARY      2   LAYER   2   ROW    14   COL     9   RATE    0.214579    



 STREAM LISTING     PERIOD      3   STEP       10

 LAYER ROW COL. STREAM  RCH.  FLOW INTO     FLOW TO   FLOW OUT OF   OVRLND.     DIRECT     STREAM       STREAM     STREAM     STREAM   STREAMBED  STREAMBED
                SEG.NO.  NO.  STRM. RCH.    AQUIFER    STRM. RCH.    RUNOFF     PRECIP       ET          HEAD       DEPTH      WIDTH   CONDCTNC.   GRADIENT

   2    1    1     1     1    2.4000E+01  1.9215E+00   2.2079E+01  0.000E+00  0.000E+00  0.000E+00  1.09420E+03  1.150E+00  1.266E+01  5.698E-01  1.124E+00
   2    2    2     1     2    2.2079E+01  3.4713E+00   1.8607E+01  0.000E+00  0.000E+00  0.000E+00  1.08916E+03  1.106E+00  1.208E+01  8.454E-01  1.369E+00
   2    3    3     1     3    1.8607E+01  2.7118E+00   1.5895E+01  0.000E+00  0.000E+00  0.000E+00  1.08347E+03  1.054E+00  1.115E+01  6.689E-01  1.351E+00
   2    3    4     1     4    1.5895E+01  2.2935E+00   1.3602E+01  0.000E+00  0.000E+00  0.000E+00  1.07842E+03  1.007E+00  1.031E+01  5.724E-01  1.336E+00
   2    4    5     2     1    3.6019E+00  2.5661E+00   1.0357E+00  0.000E+00  0.000E+00  0.000E+00  1.07222E+03  2.899E-01  1.200E+01  7.800E-01  1.097E+00
   2    5    6     2     2    1.0357E+00  1.0357E+00   0.0000E+00  0.000E+00  0.000E+00  0.000E+00  1.06655E+03  4.022E-02  1.200E+01  6.000E-01  1.013E+00
   2    6    6     2     3    0.0000E+00  0.0000E+00   0.0000E+00  0.000E+00  0.000E+00  0.000E+00  1.06179E+03  0.000E+00  1.200E+01  6.000E-01  1.000E+00
   2    7    6     2     4    0.0000E+00  0.0000E+00   0.0000E+00  0.000E+00  0.000E+00  0.000E+00  1.05708E+03  0.000E+00  1.200E+01  6.000E-01  1.000E+00
   2    8    6     2     5    0.0000E+00  0.0000E+00   0.0000E+00  0.000E+00  0.000E+00  0.000E+00  1.05236E+03  0.000E+00  1.200E+01  6.000E-01  1.000E+00
   2    3    5     3     1    1.0000E+01  2.8252E+00   7.1748E+00  0.000E+00  0.000E+00  0.000E+00  1.07555E+03  1.909E+00  9.636E+00  7.227E-01  1.955E+00
   2    3    6     3     2    7.1748E+00  2.4905E+00   4.6843E+00  0.000E+00  0.000E+00  0.000E+00  1.07264E+03  1.727E+00  8.909E+00  6.682E-01  1.864E+00
   2    3    7     3     3    4.6843E+00  1.9718E+00   2.7125E+00  0.000E+00  0.000E+00  0.000E+00  1.06987E+03  1.555E+00  8.218E+00  5.547E-01  1.777E+00
   2    4    8     3     4    2.7125E+00  2.2567E+00   4.5579E-01  0.000E+00  0.000E+00  0.000E+00  1.06682E+03  1.364E+00  7.455E+00  6.709E-01  1.682E+00
   2    5    8     3     5    4.5579E-01  4.5579E-01   0.0000E+00  0.000E+00  0.000E+00  0.000E+00  1.06362E+03  0.000E+00  6.655E+00  4.991E-01  1.582E+00
   2    6    8     3     6    0.0000E+00  0.0000E+00   0.0000E+00  0.000E+00  0.000E+00  0.000E+00  1.06055E+03  0.000E+00  6.145E+00  1.844E-01  1.000E+00
   2    5   10     4     1    1.0000E+01  9.0525E-01   9.0947E+00  0.000E+00  0.000E+00  0.000E+00  1.07835E+03  6.210E-01  1.000E+01  2.500E-01  1.207E+00
   2    5    9     4     2    9.0947E+00  1.7835E+00   7.3113E+00  0.000E+00  0.000E+00  0.000E+00  1.07148E+03  5.670E-01  1.000E+01  5.000E-01  1.189E+00
   2    6    8     4     3    7.3113E+00  1.2257E+00   6.0855E+00  0.000E+00  0.000E+00  0.000E+00  1.06368E+03  5.021E-01  1.000E+01  3.500E-01  1.167E+00
   2    6    8     5     1    6.0855E+00  1.4716E+00   4.6139E+00  0.000E+00  0.000E+00  0.000E+00  1.05854E+03  5.396E-01  1.039E+01  4.158E-01  1.180E+00
   2    7    7     5     2    4.6139E+00  1.4897E+00   3.1242E+00  0.000E+00  0.000E+00  0.000E+00  1.05398E+03  4.817E-01  8.557E+00  4.279E-01  1.161E+00
   2    8    7     5     3    3.1242E+00  8.2855E-01   2.2957E+00  0.000E+00  0.000E+00  0.000E+00  1.04968E+03  4.253E-01  6.911E+00  2.419E-01  1.142E+00
   2    8    6     5     4    2.2957E+00  4.9455E-01   1.8011E+00  0.000E+00  0.000E+00  0.000E+00  1.04664E+03  3.856E-01  5.843E+00  1.461E-01  1.129E+00
   2    9    6     6     1    1.8011E+00  1.8011E+00   0.0000E+00  0.000E+00  0.000E+00  0.000E+00  1.04278E+03  5.669E-02  1.200E+01  6.000E-01  1.019E+00
   2   10    7     6     2    0.0000E+00  0.0000E+00   0.0000E+00  0.000E+00  0.000E+00  0.000E+00  1.03818E+03  0.000E+00  1.200E+01  6.000E-01  1.000E+00
   2   11    7     6     3    0.0000E+00  0.0000E+00   0.0000E+00  0.000E+00  0.000E+00  0.000E+00  1.03364E+03  0.000E+00  1.200E+01  6.000E-01  1.000E+00
   2   12    7     6     4    0.0000E+00  0.0000E+00   0.0000E+00  0.000E+00  0.000E+00  0.000E+00  1.02909E+03  0.000E+00  1.200E+01  6.000E-01  5.437E-01
   2   13    7     6     5    0.0000E+00 -7.4384E-01   7.4384E-01  0.000E+00  0.000E+00  0.000E+00  1.02601E+03  9.778E-02  1.200E+01  2.400E-01 -1.033E+00
   2   14    9     7     1    1.5000E+02  2.8580E+00   1.4714E+02  0.000E+00  0.000E+00  0.000E+00  1.03986E+03  2.284E+00  5.528E+01  5.591E+00  1.704E-01
   2   13    8     7     2    1.4714E+02  3.9242E+00   1.4322E+02  0.000E+00  0.000E+00  0.000E+00  1.03477E+03  2.266E+00  5.520E+01  6.140E+00  2.130E-01
   2   13    7     7     3    1.4322E+02  3.1192E+00   1.4010E+02  0.000E+00  0.000E+00  0.000E+00  1.02967E+03  2.247E+00  5.511E+01  5.573E+00  1.866E-01
   2   13    6     8     1    1.4084E+02  1.2346E+00   1.3961E+02  0.000E+00  0.000E+00  0.000E+00  1.02462E+03  2.747E+00  3.982E+01  4.058E+00  1.014E-01
   2   13    5     8     2    1.3961E+02 -1.9820E+00   1.4159E+02  0.000E+00  0.000E+00  0.000E+00  1.01837E+03  2.749E+00  3.986E+01  4.062E+00 -1.626E-01
   2   13    4     8     3    1.4159E+02 -5.0232E+00   1.4661E+02  0.000E+00  0.000E+00  0.000E+00  1.01215E+03  2.775E+00  4.023E+01  4.100E+00 -4.084E-01
   2   13    3     8     4    1.4661E+02 -5.7787E+00   1.5239E+02  0.000E+00  0.000E+00  0.000E+00  1.00594E+03  2.813E+00  4.079E+01  4.157E+00 -4.634E-01
   2   13    2     8     5    1.5239E+02 -3.4809E+00   1.5587E+02  0.000E+00  0.000E+00  0.000E+00  9.99721E+02  2.846E+00  4.126E+01  4.205E+00 -2.759E-01
   2   13    1     8     6    1.5587E+02 -2.2894E+00   1.5816E+02  0.000E+00  0.000E+00  0.000E+00  9.94741E+02  2.866E+00  4.155E+01  2.540E+00 -3.004E-01
   2    4    5     9     1    0.0000E+00  0.0000E+00   0.0000E+00  0.000E+00  0.000E+00  0.000E+00  1.06000E+03  0.000E+00  2.000E+01  2.000E-03  1.000E+00
   2    4    5    10     1    0.0000E+00  0.0000E+00   0.0000E+00  0.000E+00  0.000E+00  0.000E+00  1.08000E+03  0.000E+00  2.000E+01  2.000E-03  1.000E+00



 ..........LAKE  1 IS DRY..........

     SECTIONS OF THE LAKE BOTTOM HAVE BECOME DRY.  THE DRYSECTIONS
     LIE ABOVE THE FOLLOWING  1 AQUIFER CELLS (LAYER,ROW,COLUMN):
     (  2,  4,  5)  (

 PERIOD     3     TIME STEP    10     TIME STEP LENGTH  1.7520E+05
 PERIOD TIME  1.7520E+06     TOTAL SIMULATION TIME  7.0080E+06


                 HYDROLOGIC BUDGET SUMMARIES FOR SIMULATED LAKES
     (ALL FLUID FLUXES ARE VOLUMES ADDED TO THE LAKE DURING PRESENT TIME STEP)
     ----------------------------------------------------------------------------------------
 LAKE    STAGE         VOLUME     VOL. CHANGE      PRECIP     EVAPORATION    SPECIFIED RUNOFF     COMPUTED RUNOFF    TOTAL RUNOFF
   1  1.074500E+03  0.000000E+00  0.000000E+00  0.000000E+00  0.000000E+00   0.000000E+00          0.000000E+00      0.000000E+00

            GROUND WATER            SURFACE WATER        WATER          UZF INFIL.
 LAKE    INFLOW     OUTFLOW      INFLOW     OUTFLOW       USE        FROM LAKE
   1  0.0000E+00  0.0000E+00  0.0000E+00  0.0000E+00  0.0000E+00       0.0000E+00

      CONNECTED LAKE   TIME-STEP         STAGE-CHANGE          PERCENT
 LAKE    INFLUX      SURFACE AREA   TIME STEP  CUMULATIVE    DISCREPANCY
   1   0.0000E+00     0.0000E+00   0.0000E+00  0.0000E+00       0.000
 --------------------------------------------------------------------------------



            CUMULATIVE HYDROLOGIC BUDGET SUMMARIES FOR SIMULATED LAKES
     (ALL FLUID FLUXES ARE SUMS OF VOLUMES ADDED TO THE LAKE SINCE INITIAL TIME)
     ---------------------------------------------------------------------------
 LAKE       PRECIP       EVAP     SPECIFIED RUNOFF   COMPUTED RUNOFF   TOTAL RUNOFF
   1     0.0000E+00  0.0000E+00       0.0000E+00       0.0000E+00       0.0000E+00

            GROUND WATER            SURFACE WATER       UZF INFIL.
 LAKE    INFLOW     OUTFLOW      INFLOW     OUTFLOW     FROM LAKE
   1  0.0000E+00  0.0000E+00  0.0000E+00  0.0000E+00    0.0000E+00

         WATER    CONNECTED LAKE   CHANGE       PERCENT
 LAKE     USE         INFLUX       IN VOL.    DISCREPANCY
   1   0.0000E+00   0.0000E+00   0.0000E+00      0.000
 --------------------------------------------------------------------------------

 UBDSV3 SAVING "           GW ET" ON UNIT  61 AT TIME STEP    10, STRESS PERIOD   3
 UBDSV3 SAVING "    UZF RECHARGE" ON UNIT  61 AT TIME STEP    10, STRESS PERIOD   3
 UBDSV3 SAVING " SURFACE LEAKAGE" ON UNIT  61 AT TIME STEP    10, STRESS PERIOD   3
 UBDSV3 SAVING "       HORT+DUNN" ON UNIT  61 AT TIME STEP    10, STRESS PERIOD   3
 UBDSV3 SAVING "  STORAGE CHANGE" ON UNIT  61 AT TIME STEP    10, STRESS PERIOD   3


UNSATURATED ZONE PACKAGE VOLUMETRIC BUDGET FOR  TIME STEP    10 STRESS PERIOD    3
  ------------------------------------------------------------------------------



     CUMULATIVE VOLUMES      L**3       RATES FOR THIS TIME STEP      L**3/T
     ------------------                 ------------------------

           IN:                                      IN:
           ---                                      ---
        INFILTRATION =   327917460.0000          INFILTRATION =          84.5000

          OUT:                                     OUT:
          ----                                     ----
              UZF ET =   468019143.8721                UZF ET =          58.8232
        UZF RECHARGE =   158133251.9958          UZF RECHARGE =          27.0968

            IN - OUT =  -298234935.8679              IN - OUT =          -1.4200

          STORAGE:                                 STORAGE:
          --------                                 --------
      STORAGE CHANGE =  -298158140.6525        STORAGE CHANGE =          -1.4134

 PERCENT DISCREPANCY IS DIFFERENCE BETWEEN IN-OUT MINUS CHANGE IN STORAGE
 DIVIDED BY THE AVERAGE OF IN AND OUT TIMES 100

 PERCENT DISCREPANCY =          -0.00     PERCENT DISCREPANCY =          -0.01






1
  VOLUMETRIC BUDGET FOR ENTIRE MODEL AT END OF TIME STEP   10, STRESS PERIOD   3
  ------------------------------------------------------------------------------

     CUMULATIVE VOLUMES      L**3       RATES FOR THIS TIME STEP      L**3/T
     ------------------                 ------------------------

           IN:                                      IN:
           ---                                      ---
             STORAGE =     8855126.0000               STORAGE =           0.9156
       CONSTANT HEAD =           0.0000         CONSTANT HEAD =           0.0000
               WELLS =           0.0000                 WELLS =           0.0000
     HEAD DEP BOUNDS =     1507170.3750       HEAD DEP BOUNDS =           0.2146
      STREAM LEAKAGE =   334686496.0000        STREAM LEAKAGE =          45.1359
       LAKE  SEEPAGE =           0.0000         LAKE  SEEPAGE =           0.0000
        UZF RECHARGE =   158133248.0000          UZF RECHARGE =          27.0968
               GW ET =           0.0000                 GW ET =           0.0000
     SURFACE LEAKAGE =           0.0000       SURFACE LEAKAGE =           0.0000

            TOTAL IN =   503182048.0000              TOTAL IN =          73.3628

          OUT:                                     OUT:
          ----                                     ----
             STORAGE =   165202320.0000               STORAGE =          30.9753
       CONSTANT HEAD =           0.0000         CONSTANT HEAD =           0.0000
               WELLS =   122640000.0000                 WELLS =          10.0000
     HEAD DEP BOUNDS =     2017819.3750       HEAD DEP BOUNDS =           0.2904
      STREAM LEAKAGE =   126551248.0000        STREAM LEAKAGE =          19.2980
       LAKE  SEEPAGE =           0.0000         LAKE  SEEPAGE =           0.0000
        UZF RECHARGE =           0.0000          UZF RECHARGE =           0.0000
               GW ET =    86764192.0000                 GW ET =          12.7991
     SURFACE LEAKAGE =           0.0000       SURFACE LEAKAGE =           0.0000

           TOTAL OUT =   503175584.0000             TOTAL OUT =          73.3628

            IN - OUT =        6464.0000              IN - OUT =       2.2888E-05

 PERCENT DISCREPANCY =           0.00     PERCENT DISCREPANCY =           0.00






         TIME SUMMARY AT END OF TIME STEP   10 IN STRESS PERIOD    3
                    SECONDS     MINUTES      HOURS       DAYS        YEARS
                    -----------------------------------------------------------
   TIME STEP LENGTH 1.75200E+05  2920.0      48.667      2.0278     5.55175E-03
 STRESS PERIOD TIME 1.75200E+06  29200.      486.67      20.278     5.55175E-02
         TOTAL TIME 7.00800E+06 1.16800E+05  1946.7      81.111     0.22207    
1
 
 SOLVING FOR HEAD 
                                                   Max.-Head-Change                         Max.-Flux-Residual
  Residual-Control   Outer-Iter.   Inner-Iter.     Column Row Layer    Maximum-Head-Change  Column Row Layer    Maximum-Flux-Residual          L2-NORM 
          0                 1           2             6    3     2       0.5176683344E-01       4    8    2         0.9763811856E+00      0.3862704518E+01
          0                 2           2             4    8     2      -0.1633758465E-02       4    8    2        -0.4511873003E-01      0.1395496937E+00
          0                 3           1             6   11     2       0.2853581321E-04       6   11    2         0.8617962158E-03      0.2488577507E-02

    ------------------------------------------------
       NWT REQUIRED            3 OUTER ITERATIONS 
       AND A TOTAL OF          5 INNER ITERATIONS.
    ------------------------------------------------

 NO OUTPUT CONTROL FOR STRESS PERIOD    3   TIME STEP   11
 ..........LAKE  1 IS DRY..........
 
 SOLVING FOR HEAD 
                                                   Max.-Head-Change                         Max.-Flux-Residual
  Residual-Control   Outer-Iter.   Inner-Iter.     Column Row Layer    Maximum-Head-Change  Column Row Layer    Maximum-Flux-Residual          L2-NORM 
          0                 1           2             6    3     2       0.5042395139E-01       4    8    2         0.9559110965E+00      0.3788443646E+01
          0                 2           2             4    8     2      -0.1600419430E-02       6    5    2         0.4841693639E-01      0.1403129779E+00
          0                 3           1             6   11     2       0.2984760755E-04       6   11    2         0.8969287992E-03      0.2658732090E-02

    ------------------------------------------------
       NWT REQUIRED            3 OUTER ITERATIONS 
       AND A TOTAL OF          5 INNER ITERATIONS.
    ------------------------------------------------

 NO OUTPUT CONTROL FOR STRESS PERIOD    3   TIME STEP   12
 ..........LAKE  1 IS DRY..........
 
 SOLVING FOR HEAD 
                                                   Max.-Head-Change                         Max.-Flux-Residual
  Residual-Control   Outer-Iter.   Inner-Iter.     Column Row Layer    Maximum-Head-Change  Column Row Layer    Maximum-Flux-Residual          L2-NORM 
          0                 1           2             6    3     2       0.4908822350E-01       4    8    2         0.9352440602E+00      0.3659482925E+01
          0                 2           2             4    8     2      -0.1565549010E-02       4    8    2        -0.4324569875E-01      0.1352749034E+00
          0                 3           1             6   11     2       0.3100497840E-04       6   11    2         0.9308066583E-03      0.2656029722E-02

    ------------------------------------------------
       NWT REQUIRED            3 OUTER ITERATIONS 
       AND A TOTAL OF          5 INNER ITERATIONS.
    ------------------------------------------------

 NO OUTPUT CONTROL FOR STRESS PERIOD    3   TIME STEP   13
 ..........LAKE  1 IS DRY..........
 
 SOLVING FOR HEAD 
                                                   Max.-Head-Change                         Max.-Flux-Residual
  Residual-Control   Outer-Iter.   Inner-Iter.     Column Row Layer    Maximum-Head-Change  Column Row Layer    Maximum-Flux-Residual          L2-NORM 
          0                 1           2             6    3     2       0.4777483198E-01       4    8    2         0.9150900607E+00      0.3529976441E+01
          0                 2           2             4    8     2      -0.1532375309E-02       4    8    2        -0.4233064849E-01      0.1314410748E+00
          0                 3           1             6   11     2       0.3223891943E-04       6   11    2         0.9638989386E-03      0.2700895956E-02

    ------------------------------------------------
       NWT REQUIRED            3 OUTER ITERATIONS 
       AND A TOTAL OF          5 INNER ITERATIONS.
    ------------------------------------------------

 NO OUTPUT CONTROL FOR STRESS PERIOD    3   TIME STEP   14
 ..........LAKE  1 IS DRY..........
 
 SOLVING FOR HEAD 
                                                   Max.-Head-Change                         Max.-Flux-Residual
  Residual-Control   Outer-Iter.   Inner-Iter.     Column Row Layer    Maximum-Head-Change  Column Row Layer    Maximum-Flux-Residual          L2-NORM 
          0                 1           2            10   10     2       0.4688127398E-01       4    8    2         0.8950340908E+00      0.3370450173E+01
          0                 2           2             4    8     2      -0.1498904179E-02       4    8    2        -0.4141296374E-01      0.1241257236E+00
          0                 3           1             6   11     2       0.3329286890E-04       6   11    2         0.9952099185E-03      0.2576871804E-02

    ------------------------------------------------
       NWT REQUIRED            3 OUTER ITERATIONS 
       AND A TOTAL OF          5 INNER ITERATIONS.
    ------------------------------------------------

 OUTPUT CONTROL FOR STRESS PERIOD    3   TIME STEP   15
    PRINT BUDGET
    PRINT HEAD FOR ALL LAYERS
    SAVE HEAD FOR ALL LAYERS
    SAVE BUDGET

            WELLS   PERIOD    3   STEP  15
 WELL      1   LAYER   2   ROW     6   COL     4   RATE    -1.00000    
 WELL      2   LAYER   2   ROW     6   COL     5   RATE    -1.00000    
 WELL      3   LAYER   2   ROW     7   COL     4   RATE    -1.00000    
 WELL      4   LAYER   2   ROW     7   COL     5   RATE    -1.00000    
 WELL      5   LAYER   2   ROW     8   COL     4   RATE    -1.00000    
 WELL      6   LAYER   2   ROW     8   COL     5   RATE    -1.00000    
 WELL      7   LAYER   2   ROW     9   COL     4   RATE    -1.00000    
 WELL      8   LAYER   2   ROW     9   COL     5   RATE    -1.00000    
 WELL      9   LAYER   2   ROW    10   COL     4   RATE    -1.00000    
 WELL     10   LAYER   2   ROW    10   COL     5   RATE    -1.00000    

  HEAD DEP BOUNDS   PERIOD    3   STEP    15
 BOUNDARY      1   LAYER   2   ROW    13   COL     1   RATE   -0.290716    
 BOUNDARY      2   LAYER   2   ROW    14   COL     9   RATE    0.214608    



 STREAM LISTING     PERIOD      3   STEP       15

 LAYER ROW COL. STREAM  RCH.  FLOW INTO     FLOW TO   FLOW OUT OF   OVRLND.     DIRECT     STREAM       STREAM     STREAM     STREAM   STREAMBED  STREAMBED
                SEG.NO.  NO.  STRM. RCH.    AQUIFER    STRM. RCH.    RUNOFF     PRECIP       ET          HEAD       DEPTH      WIDTH   CONDCTNC.   GRADIENT

   2    1    1     1     1    2.3879E+01  1.9270E+00   2.1952E+01  0.000E+00  0.000E+00  0.000E+00  1.09420E+03  1.148E+00  1.264E+01  5.687E-01  1.130E+00
   2    2    2     1     2    2.1952E+01  3.4617E+00   1.8490E+01  0.000E+00  0.000E+00  0.000E+00  1.08916E+03  1.104E+00  1.205E+01  8.435E-01  1.368E+00
   2    3    3     1     3    1.8490E+01  2.7018E+00   1.5789E+01  0.000E+00  0.000E+00  0.000E+00  1.08347E+03  1.052E+00  1.111E+01  6.668E-01  1.351E+00
   2    3    4     1     4    1.5789E+01  2.2844E+00   1.3504E+01  0.000E+00  0.000E+00  0.000E+00  1.07841E+03  1.005E+00  1.028E+01  5.704E-01  1.335E+00
   2    4    5     2     1    3.5041E+00  2.5605E+00   9.4357E-01  0.000E+00  0.000E+00  0.000E+00  1.07222E+03  2.828E-01  1.200E+01  7.800E-01  1.094E+00
   2    5    6     2     2    9.4357E-01  9.4357E-01   0.0000E+00  0.000E+00  0.000E+00  0.000E+00  1.06653E+03  1.902E-02  1.200E+01  6.000E-01  1.006E+00
   2    6    6     2     3    0.0000E+00  0.0000E+00   0.0000E+00  0.000E+00  0.000E+00  0.000E+00  1.06179E+03  0.000E+00  1.200E+01  6.000E-01  1.000E+00
   2    7    6     2     4    0.0000E+00  0.0000E+00   0.0000E+00  0.000E+00  0.000E+00  0.000E+00  1.05708E+03  0.000E+00  1.200E+01  6.000E-01  1.000E+00
   2    8    6     2     5    0.0000E+00  0.0000E+00   0.0000E+00  0.000E+00  0.000E+00  0.000E+00  1.05236E+03  0.000E+00  1.200E+01  6.000E-01  1.000E+00
   2    3    5     3     1    1.0000E+01  2.8252E+00   7.1748E+00  0.000E+00  0.000E+00  0.000E+00  1.07555E+03  1.909E+00  9.636E+00  7.227E-01  1.955E+00
   2    3    6     3     2    7.1748E+00  2.4905E+00   4.6843E+00  0.000E+00  0.000E+00  0.000E+00  1.07264E+03  1.727E+00  8.909E+00  6.682E-01  1.864E+00
   2    3    7     3     3    4.6843E+00  1.9718E+00   2.7125E+00  0.000E+00  0.000E+00  0.000E+00  1.06987E+03  1.555E+00  8.218E+00  5.547E-01  1.777E+00
   2    4    8     3     4    2.7125E+00  2.2567E+00   4.5579E-01  0.000E+00  0.000E+00  0.000E+00  1.06682E+03  1.364E+00  7.455E+00  6.709E-01  1.682E+00
   2    5    8     3     5    4.5579E-01  4.5579E-01   0.0000E+00  0.000E+00  0.000E+00  0.000E+00  1.06362E+03  0.000E+00  6.655E+00  4.991E-01  1.582E+00
   2    6    8     3     6    0.0000E+00  0.0000E+00   0.0000E+00  0.000E+00  0.000E+00  0.000E+00  1.06055E+03  0.000E+00  6.145E+00  1.844E-01  1.000E+00
   2    5   10     4     1    1.0000E+01  9.0525E-01   9.0947E+00  0.000E+00  0.000E+00  0.000E+00  1.07835E+03  6.210E-01  1.000E+01  2.500E-01  1.207E+00
   2    5    9     4     2    9.0947E+00  1.7835E+00   7.3113E+00  0.000E+00  0.000E+00  0.000E+00  1.07148E+03  5.670E-01  1.000E+01  5.000E-01  1.189E+00
   2    6    8     4     3    7.3113E+00  1.2257E+00   6.0855E+00  0.000E+00  0.000E+00  0.000E+00  1.06368E+03  5.021E-01  1.000E+01  3.500E-01  1.167E+00
   2    6    8     5     1    6.0855E+00  1.4716E+00   4.6139E+00  0.000E+00  0.000E+00  0.000E+00  1.05854E+03  5.396E-01  1.039E+01  4.158E-01  1.180E+00
   2    7    7     5     2    4.6139E+00  1.4897E+00   3.1242E+00  0.000E+00  0.000E+00  0.000E+00  1.05398E+03  4.817E-01  8.557E+00  4.279E-01  1.161E+00
   2    8    7     5     3    3.1242E+00  8.2855E-01   2.2957E+00  0.000E+00  0.000E+00  0.000E+00  1.04968E+03  4.253E-01  6.911E+00  2.419E-01  1.142E+00
   2    8    6     5     4    2.2957E+00  4.9455E-01   1.8011E+00  0.000E+00  0.000E+00  0.000E+00  1.04664E+03  3.856E-01  5.843E+00  1.461E-01  1.129E+00
   2    9    6     6     1    1.8011E+00  1.8011E+00   0.0000E+00  0.000E+00  0.000E+00  0.000E+00  1.04278E+03  5.669E-02  1.200E+01  6.000E-01  1.019E+00
   2   10    7     6     2    0.0000E+00  0.0000E+00   0.0000E+00  0.000E+00  0.000E+00  0.000E+00  1.03818E+03  0.000E+00  1.200E+01  6.000E-01  1.000E+00
   2   11    7     6     3    0.0000E+00  0.0000E+00   0.0000E+00  0.000E+00  0.000E+00  0.000E+00  1.03364E+03  0.000E+00  1.200E+01  6.000E-01  1.000E+00
   2   12    7     6     4    0.0000E+00  0.0000E+00   0.0000E+00  0.000E+00  0.000E+00  0.000E+00  1.02909E+03  0.000E+00  1.200E+01  6.000E-01  5.403E-01
   2   13    7     6     5    0.0000E+00 -7.4502E-01   7.4502E-01  0.000E+00  0.000E+00  0.000E+00  1.02601E+03  9.787E-02  1.200E+01  2.400E-01 -1.035E+00
   2   14    9     7     1    1.5000E+02  2.8622E+00   1.4714E+02  0.000E+00  0.000E+00  0.000E+00  1.03986E+03  2.284E+00  5.528E+01  5.591E+00  1.706E-01
   2   13    8     7     2    1.4714E+02  3.9186E+00   1.4322E+02  0.000E+00  0.000E+00  0.000E+00  1.03477E+03  2.266E+00  5.520E+01  6.140E+00  2.127E-01
   2   13    7     7     3    1.4322E+02  3.0917E+00   1.4013E+02  0.000E+00  0.000E+00  0.000E+00  1.02967E+03  2.247E+00  5.511E+01  5.573E+00  1.849E-01
   2   13    6     8     1    1.4087E+02  1.2018E+00   1.3967E+02  0.000E+00  0.000E+00  0.000E+00  1.02462E+03  2.747E+00  3.983E+01  4.059E+00  9.870E-02
   2   13    5     8     2    1.3967E+02 -2.0149E+00   1.4169E+02  0.000E+00  0.000E+00  0.000E+00  1.01837E+03  2.750E+00  3.987E+01  4.063E+00 -1.653E-01
   2   13    4     8     3    1.4169E+02 -5.0592E+00   1.4674E+02  0.000E+00  0.000E+00  0.000E+00  1.01215E+03  2.776E+00  4.025E+01  4.101E+00 -4.112E-01
   2   13    3     8     4    1.4674E+02 -5.8098E+00   1.5255E+02  0.000E+00  0.000E+00  0.000E+00  1.00594E+03  2.814E+00  4.081E+01  4.159E+00 -4.657E-01
   2   13    2     8     5    1.5255E+02 -3.4992E+00   1.5605E+02  0.000E+00  0.000E+00  0.000E+00  9.99722E+02  2.847E+00  4.128E+01  4.207E+00 -2.773E-01
   2   13    1     8     6    1.5605E+02 -2.3092E+00   1.5836E+02  0.000E+00  0.000E+00  0.000E+00  9.94742E+02  2.867E+00  4.157E+01  2.542E+00 -3.029E-01
   2    4    5     9     1    0.0000E+00  0.0000E+00   0.0000E+00  0.000E+00  0.000E+00  0.000E+00  1.06000E+03  0.000E+00  2.000E+01  2.000E-03  1.000E+00
   2    4    5    10     1    0.0000E+00  0.0000E+00   0.0000E+00  0.000E+00  0.000E+00  0.000E+00  1.08000E+03  0.000E+00  2.000E+01  2.000E-03  1.000E+00



 ..........LAKE  1 IS DRY..........

     SECTIONS OF THE LAKE BOTTOM HAVE BECOME DRY.  THE DRYSECTIONS
     LIE ABOVE THE FOLLOWING  1 AQUIFER CELLS (LAYER,ROW,COLUMN):
     (  2,  4,  5)  (

 PERIOD     3     TIME STEP    15     TIME STEP LENGTH  1.7520E+05
 PERIOD TIME  2.6280E+06     TOTAL SIMULATION TIME  7.8840E+06


                 HYDROLOGIC BUDGET SUMMARIES FOR SIMULATED LAKES
     (ALL FLUID FLUXES ARE VOLUMES ADDED TO THE LAKE DURING PRESENT TIME STEP)
     ----------------------------------------------------------------------------------------
 LAKE    STAGE         VOLUME     VOL. CHANGE      PRECIP     EVAPORATION    SPECIFIED RUNOFF     COMPUTED RUNOFF    TOTAL RUNOFF
   1  1.074500E+03  0.000000E+00  0.000000E+00  0.000000E+00  0.000000E+00   0.000000E+00          0.000000E+00      0.000000E+00

            GROUND WATER            SURFACE WATER        WATER          UZF INFIL.
 LAKE    INFLOW     OUTFLOW      INFLOW     OUTFLOW       USE        FROM LAKE
   1  0.0000E+00  0.0000E+00  0.0000E+00  0.0000E+00  0.0000E+00       0.0000E+00

      CONNECTED LAKE   TIME-STEP         STAGE-CHANGE          PERCENT
 LAKE    INFLUX      SURFACE AREA   TIME STEP  CUMULATIVE    DISCREPANCY
   1   0.0000E+00     0.0000E+00   0.0000E+00  0.0000E+00       0.000
 --------------------------------------------------------------------------------



            CUMULATIVE HYDROLOGIC BUDGET SUMMARIES FOR SIMULATED LAKES
     (ALL FLUID FLUXES ARE SUMS OF VOLUMES ADDED TO THE LAKE SINCE INITIAL TIME)
     ---------------------------------------------------------------------------
 LAKE       PRECIP       EVAP     SPECIFIED RUNOFF   COMPUTED RUNOFF   TOTAL RUNOFF
   1     0.0000E+00  0.0000E+00       0.0000E+00       0.0000E+00       0.0000E+00

            GROUND WATER            SURFACE WATER       UZF INFIL.
 LAKE    INFLOW     OUTFLOW      INFLOW     OUTFLOW     FROM LAKE
   1  0.0000E+00  0.0000E+00  0.0000E+00  0.0000E+00    0.0000E+00

         WATER    CONNECTED LAKE   CHANGE       PERCENT
 LAKE     USE         INFLUX       IN VOL.    DISCREPANCY
   1   0.0000E+00   0.0000E+00   0.0000E+00      0.000
 --------------------------------------------------------------------------------

 UBDSV3 SAVING "           GW ET" ON UNIT  61 AT TIME STEP    15, STRESS PERIOD   3
 UBDSV3 SAVING "    UZF RECHARGE" ON UNIT  61 AT TIME STEP    15, STRESS PERIOD   3
 UBDSV3 SAVING " SURFACE LEAKAGE" ON UNIT  61 AT TIME STEP    15, STRESS PERIOD   3
 UBDSV3 SAVING "       HORT+DUNN" ON UNIT  61 AT TIME STEP    15, STRESS PERIOD   3
 UBDSV3 SAVING "  STORAGE CHANGE" ON UNIT  61 AT TIME STEP    15, STRESS PERIOD   3


UNSATURATED ZONE PACKAGE VOLUMETRIC BUDGET FOR  TIME STEP    15 STRESS PERIOD    3
  ------------------------------------------------------------------------------



     CUMULATIVE VOLUMES      L**3       RATES FOR THIS TIME STEP      L**3/T
     ------------------                 ------------------------

           IN:                                      IN:
           ---                                      ---
        INFILTRATION =   401939460.0000          INFILTRATION =          84.5000

          OUT:                                     OUT:
          ----                                     ----
              UZF ET =   521620812.0399                UZF ET =          62.6255
        UZF RECHARGE =   179968072.7227          UZF RECHARGE =          23.4979

            IN - OUT =  -299649424.7626              IN - OUT =          -1.6234

          STORAGE:                                 STORAGE:
          --------                                 --------
      STORAGE CHANGE =  -299563190.9698        STORAGE CHANGE =          -1.6140

 PERCENT DISCREPANCY IS DIFFERENCE BETWEEN IN-OUT MINUS CHANGE IN STORAGE
 DIVIDED BY THE AVERAGE OF IN AND OUT TIMES 100

 PERCENT DISCREPANCY =          -0.00     PERCENT DISCREPANCY =          -0.01






1
              HEAD IN LAYER   1 AT END OF TIME STEP    15 IN STRESS PERIOD    3
  -----------------------------------------------------------------------------

           1       2       3       4       5       6       7       8       9      10
 ...................................................................................
   1  6999.00 6999.00 6999.00 6999.00 6999.00 6999.00 6999.00 6999.00 6999.00 6999.00
   2  6999.00 6999.00 6999.00 6999.00 6999.00 6999.00 6999.00 6999.00 6999.00 6999.00
   3  6999.00 6999.00 6999.00 6999.00 6999.00 6999.00 6999.00 6999.00 6999.00 6999.00
   4  6999.00 6999.00 6999.00 6999.00 6999.00 6999.00 6999.00 6999.00 6999.00 6999.00
   5  6999.00 6999.00 6999.00 6999.00 6999.00 6999.00 6999.00 6999.00 6999.00 6999.00
   6  6999.00 6999.00 6999.00 6999.00 6999.00 6999.00 6999.00 6999.00 6999.00 6999.00
   7  6999.00 6999.00 6999.00 6999.00 6999.00 6999.00 6999.00 6999.00 6999.00 6999.00
   8  6999.00 6999.00 6999.00 6999.00 6999.00 6999.00 6999.00 6999.00 6999.00 6999.00
   9  6999.00 6999.00 6999.00 6999.00 6999.00 6999.00 6999.00 6999.00 6999.00 6999.00
  10  6999.00 6999.00 6999.00 6999.00 6999.00 6999.00 6999.00 6999.00 6999.00 6999.00
  11  6999.00 6999.00 6999.00 6999.00 6999.00 6999.00 6999.00 6999.00 6999.00 6999.00
  12  6999.00 6999.00 6999.00 6999.00 6999.00 6999.00 6999.00 6999.00 6999.00 6999.00
  13  6999.00 6999.00 6999.00 6999.00 6999.00 6999.00 6999.00 6999.00 6999.00 6999.00
  14  6999.00 6999.00 6999.00 6999.00 6999.00 6999.00 6999.00 6999.00 6999.00 6999.00
  15  6999.00 6999.00 6999.00 6999.00 6999.00 6999.00 6999.00 6999.00 6999.00 6999.00
1
              HEAD IN LAYER   2 AT END OF TIME STEP    15 IN STRESS PERIOD    3
  -----------------------------------------------------------------------------

           1       2       3       4       5       6       7       8       9      10
 ...................................................................................
   1  1090.81 1085.47 6999.00 6999.00 6999.00 6999.00 6999.00 6999.00 6999.00 6999.00
   2  1085.79 1079.59 1072.73 6999.00 6999.00 1063.22 1063.22 1062.97 6999.00 6999.00
   3  6999.00 1069.29 1065.49 1061.59 1062.20 1062.87 1063.22 1061.88 6999.00 6999.00
   4  1057.82 1060.04 1058.68 1055.40 1054.25 1053.42 1054.94 1059.02 1057.94 6999.00
   5  1053.66 1053.08 1051.59 1049.71 1049.42 1049.65 1049.86 1051.62 1055.04 1057.24
   6  1049.49 1047.81 1045.91 1044.49 1044.64 1045.83 1047.17 1049.39 1052.22 1056.41
   7  1046.48 1042.97 1040.94 1039.79 1040.30 1041.88 1043.92 1046.22 1048.88 6999.00
   8  6999.00 1037.80 1036.34 1035.44 1036.08 1037.78 1039.56 1042.82 1044.16 6999.00
   9  6999.00 1032.15 1031.44 1031.02 1031.87 1033.78 1034.92 1037.15 1039.34 6999.00
  10  6999.00 1026.49 1026.52 1026.90 1028.08 1029.91 1031.06 1033.02 1035.45 1035.91
  11  6999.00 1019.55 1020.41 1022.95 1024.90 1027.06 1028.70 1030.91 1034.04 6999.00
  12  1003.10 1009.47 1013.61 1018.00 1021.53 1024.93 1027.47 1030.69 1034.58 6999.00
  13   995.65 1000.55 1007.34 1013.38 1018.87 1024.33 1029.11 1034.13 1036.69 6999.00
  14  6999.00 1006.64 1009.95 1014.75 1019.76 1024.61 1029.74 1035.14 1039.35 6999.00
  15  6999.00 6999.00 1014.10 1016.96 1020.71 1024.09 6999.00 6999.00 6999.00 6999.00

 HEAD WILL BE SAVED ON UNIT   58 AT END OF TIME STEP   15, STRESS PERIOD    3
1
  VOLUMETRIC BUDGET FOR ENTIRE MODEL AT END OF TIME STEP   15, STRESS PERIOD   3
  ------------------------------------------------------------------------------

     CUMULATIVE VOLUMES      L**3       RATES FOR THIS TIME STEP      L**3/T
     ------------------                 ------------------------

           IN:                                      IN:
           ---                                      ---
             STORAGE =     9878641.0000               STORAGE =           0.4190
       CONSTANT HEAD =           0.0000         CONSTANT HEAD =           0.0000
               WELLS =           0.0000                 WELLS =           0.0000
     HEAD DEP BOUNDS =     1695164.3750       HEAD DEP BOUNDS =           0.2146
      STREAM LEAKAGE =   373541600.0000        STREAM LEAKAGE =          44.9533
       LAKE  SEEPAGE =           0.0000         LAKE  SEEPAGE =           0.0000
        UZF RECHARGE =   179968064.0000          UZF RECHARGE =          23.4979
               GW ET =           0.0000                 GW ET =           0.0000
     SURFACE LEAKAGE =           0.0000       SURFACE LEAKAGE =           0.0000

            TOTAL IN =   565083456.0000              TOTAL IN =          69.0848

          OUT:                                     OUT:
          ----                                     ----
             STORAGE =   189933632.0000               STORAGE =          26.6261
       CONSTANT HEAD =           0.0000         CONSTANT HEAD =           0.0000
               WELLS =   131400000.0000                 WELLS =          10.0000
     HEAD DEP BOUNDS =     2272381.7500       HEAD DEP BOUNDS =           0.2907
      STREAM LEAKAGE =   143532512.0000        STREAM LEAKAGE =          19.4373
       LAKE  SEEPAGE =           0.0000         LAKE  SEEPAGE =           0.0000
        UZF RECHARGE =           0.0000          UZF RECHARGE =           0.0000
               GW ET =    97938488.0000                 GW ET =          12.7307
     SURFACE LEAKAGE =           0.0000       SURFACE LEAKAGE =           0.0000

           TOTAL OUT =   565076992.0000             TOTAL OUT =          69.0848

            IN - OUT =        6464.0000              IN - OUT =      -2.2888E-05

 PERCENT DISCREPANCY =           0.00     PERCENT DISCREPANCY =          -0.00






         TIME SUMMARY AT END OF TIME STEP   15 IN STRESS PERIOD    3
                    SECONDS     MINUTES      HOURS       DAYS        YEARS
                    -----------------------------------------------------------
   TIME STEP LENGTH 1.75200E+05  2920.0      48.667      2.0278     5.55175E-03
 STRESS PERIOD TIME 2.62800E+06  43800.      730.00      30.417     8.32763E-02
         TOTAL TIME 7.88400E+06 1.31400E+05  2190.0      91.250     0.24983    
1
1
                            STRESS PERIOD NO.    4, LENGTH =   2628000.    
                            -----------------------------------------------

                              NUMBER OF TIME STEPS =    15

                               MULTIPLIER FOR DELT =     1.000

                            INITIAL TIME STEP SIZE =   175200.0    

 WELL NO.  LAYER   ROW   COL   STRESS RATE         
 --------------------------------------------------
      1      2      6      4      -1.000    
      2      2      6      5      -1.000    
      3      2      7      4      -1.000    
      4      2      7      5      -1.000    
      5      2      8      4      -1.000    
      6      2      8      5      -1.000    
      7      2      9      4      -1.000    
      8      2      9      5      -1.000    
      9      2     10      4      -1.000    
     10      2     10      5      -1.000    

     10 WELLS

 REUSING NON-PARAMETER GHB CELLS FROM LAST STRESS PERIOD

      2 GHB CELLS

 REUSING STREAM SEGMENT DATA FROM LAST STRESS PERIOD



            AREAL INFILTRATION RATE
 READING ON UNIT   19 WITH FORMAT: (10F4.0)            

            1           2           3           4           5           6           7           8           9          10
 ........................................................................................................................
   1   2.0000E-08  4.0000E-08   0.000       0.000       0.000       0.000       0.000       0.000       0.000       0.000    
   2   4.0000E-08  2.0000E-08  4.0000E-08   0.000       0.000      1.6000E-07  1.6000E-07  1.0000E-07   0.000       0.000    
   3    0.000      1.0000E-07  2.0000E-08  2.0000E-08  1.6000E-07  1.6000E-07  1.0000E-07  1.0000E-07   0.000       0.000    
   4   1.6000E-07  1.0000E-07  2.0000E-08  2.0000E-08  2.0000E-08  2.0000E-08  2.0000E-08  2.0000E-08  4.0000E-08   0.000    
   5   1.6000E-07  1.0000E-07  2.0000E-08  2.0000E-08  2.0000E-08  2.0000E-08  2.0000E-08  2.0000E-08  2.0000E-08  2.0000E-08
   6   1.6000E-07  1.0000E-07  1.0000E-07  4.0000E-08  4.0000E-08  2.0000E-08  2.0000E-08  2.0000E-08  2.0000E-08  1.0000E-07
   7   1.6000E-07  1.0000E-07  1.0000E-07  4.0000E-08  4.0000E-08  2.0000E-08  2.0000E-08  4.0000E-08  4.0000E-08   0.000    
   8    0.000      1.0000E-07  1.0000E-07  4.0000E-08  4.0000E-08  2.0000E-08  2.0000E-08  4.0000E-08  1.0000E-07   0.000    
   9    0.000      1.0000E-07  1.0000E-07  4.0000E-08  4.0000E-08  2.0000E-08  2.0000E-08  4.0000E-08  1.0000E-07   0.000    
  10    0.000      1.0000E-07  1.0000E-07  4.0000E-08  4.0000E-08  2.0000E-08  2.0000E-08  4.0000E-08  1.0000E-07  1.6000E-07
  11    0.000      2.0000E-08  2.0000E-08  2.0000E-08  2.0000E-08  2.0000E-08  2.0000E-08  4.0000E-08  1.0000E-07   0.000    
  12   2.0000E-08  2.0000E-08  2.0000E-08  2.0000E-08  2.0000E-08  2.0000E-08  2.0000E-08  2.0000E-08  4.0000E-08   0.000    
  13   2.0000E-08  2.0000E-08  4.0000E-08  4.0000E-08  4.0000E-08  4.0000E-08  4.0000E-08  2.0000E-08  2.0000E-08   0.000    
  14    0.000      4.0000E-08  1.0000E-07  1.0000E-07  1.0000E-07  1.0000E-07  1.0000E-07  4.0000E-08  2.0000E-08   0.000    
  15    0.000       0.000      1.6000E-07  1.6000E-07  1.6000E-07  1.6000E-07   0.000       0.000       0.000       0.000    

USING ET RATE FROM PREVIOUS STRESS PERIOD. CURRENT PERIOD IS:       4

 USING ET EXTINCTION DEPTH FROM PREVIOUS STRESS PERIOD. CURRENT PERIOD IS:       4

 USING EXTINCTION WATER CONTENT FROM PREVIOUS STRESS PERIOD. CURRENT PERIOD IS:       4




 If any subsequent steady-state stress periods, min. and max. stages for each lake will be read in Record 9a.




 REUSING LAKE CONFIGURATION DATA FROM LAST STRESS PERIOD


 LAKE       PRECIP     EVAP     RUNOFF   WITHDRAW   BOTTOM     AREA
----------------------------------------------------------------------
   1     0.000E+00 4.000E-08 0.000E+00  0.000E+00 1.074E+03 2.500E+07




         C               INTERFACE CONDUCTANCES BETWEEN LAKE AND AQUIFER CELLS
   L     O          (IF TYPE = 6, CONDUCTANCE (L^2/T) IS BETWEEN AQUIFER CELL AND OVERLYING LAKE CELL.)
   A     L  L  T    (IF TYPE = 1 TO 4, CONDUCTANCES ARE PER UNIT SATURATED THICKNESS (L/T).)
   Y  R  U  A  Y
   E  O  M  K  P                        LAKEBED      C O N D U C T A N C E S
   R  W  N  E  E     DELTA Y   DELTA X  LEAKANCE   LAKEBED   AQUIFER  COMBINED
 _______________________________________________________________________________
   1  4  4  1  2    5.00E+03  5.00E+03  5.00E-02  2.50E+02  6.00E-03  6.00E-03
   1  3  5  1  3    5.00E+03  5.00E+03  5.00E-02  2.50E+02  1.20E-03  1.20E-03
   2  4  5  1  6    5.00E+03  5.00E+03  5.00E-02  1.25E+06  9.42E+00  9.42E+00
   1  5  5  1  4    5.00E+03  5.00E+03  5.00E-02  2.50E+02  6.00E-03  6.00E-03
   1  4  6  1  1    5.00E+03  5.00E+03  5.00E-02  2.50E+02  6.00E-03  6.00E-03
      LAKE     INFLOWING STREAM SEGMENT
         1                  9

 MAXIMUM NUMBER OF STREAMS INFLOWING TO A LAKE IS    1

      LAKE     OUTFLOWING STREAM SEGMENT
         1                 10

 MAXIMUM NUMBER OF STREAMS OUTFLOWING FROM A LAKE IS    1

 
 SOLVING FOR HEAD 
                                                   Max.-Head-Change                         Max.-Flux-Residual
  Residual-Control   Outer-Iter.   Inner-Iter.     Column Row Layer    Maximum-Head-Change  Column Row Layer    Maximum-Flux-Residual          L2-NORM 
          0                 1           2            10   10     2       0.4681485857E-01       4    8    2         0.8752227871E+00      0.3338316463E+01
          0                 2           2             4    8     2      -0.1465457007E-02       4    8    2        -0.4048932818E-01      0.1223609599E+00
          0                 3           1             6   11     2       0.3434721674E-04       6   11    2         0.1025108669E-02      0.2623211286E-02

    ------------------------------------------------
       NWT REQUIRED            3 OUTER ITERATIONS 
       AND A TOTAL OF          5 INNER ITERATIONS.
    ------------------------------------------------

 NO OUTPUT CONTROL FOR STRESS PERIOD    4   TIME STEP    1
 ..........LAKE  1 IS DRY..........
 
 SOLVING FOR HEAD 
                                                   Max.-Head-Change                         Max.-Flux-Residual
  Residual-Control   Outer-Iter.   Inner-Iter.     Column Row Layer    Maximum-Head-Change  Column Row Layer    Maximum-Flux-Residual          L2-NORM 
          0                 1           2            10   10     2       0.4674119142E-01       4    8    2         0.8559884121E+00      0.3302758998E+01
          0                 2           2             4    8     2      -0.1433776546E-02       4    8    2        -0.3961293000E-01      0.1212845706E+00
          0                 3           1             6   11     2       0.3537249481E-04       6   11    2         0.1053611890E-02      0.2733339487E-02

    ------------------------------------------------
       NWT REQUIRED            3 OUTER ITERATIONS 
       AND A TOTAL OF          5 INNER ITERATIONS.
    ------------------------------------------------

 NO OUTPUT CONTROL FOR STRESS PERIOD    4   TIME STEP    2
 ..........LAKE  1 IS DRY..........
 
 SOLVING FOR HEAD 
                                                   Max.-Head-Change                         Max.-Flux-Residual
  Residual-Control   Outer-Iter.   Inner-Iter.     Column Row Layer    Maximum-Head-Change  Column Row Layer    Maximum-Flux-Residual          L2-NORM 
          0                 1           2            10   10     2       0.4631009338E-01       4    8    2         0.8369118116E+00      0.3197942042E+01
          0                 2           2             4    8     2      -0.1401862931E-02       4    8    2        -0.3873290193E-01      0.1200561945E+00
          0                 3           1             6   11     2       0.3628161183E-04       6   11    2         0.1080338824E-02      0.2842700536E-02

    ------------------------------------------------
       NWT REQUIRED            3 OUTER ITERATIONS 
       AND A TOTAL OF          5 INNER ITERATIONS.
    ------------------------------------------------

 NO OUTPUT CONTROL FOR STRESS PERIOD    4   TIME STEP    3
 ..........LAKE  1 IS DRY..........
 
 SOLVING FOR HEAD 
                                                   Max.-Head-Change                         Max.-Flux-Residual
  Residual-Control   Outer-Iter.   Inner-Iter.     Column Row Layer    Maximum-Head-Change  Column Row Layer    Maximum-Flux-Residual          L2-NORM 
          0                 1           2             6    3     2       0.1622601673E+00       6    3    2         0.2197513234E+01      0.3973145617E+01
          0                 2           2             6    3     2       0.1067769310E-01       6    3    2         0.1453362622E+00      0.1958098291E+00
          0                 3           1             6    3     2       0.6970064915E-03       6    3    2         0.9495139527E-02      0.1028316545E-01

    ------------------------------------------------
       NWT REQUIRED            3 OUTER ITERATIONS 
       AND A TOTAL OF          5 INNER ITERATIONS.
    ------------------------------------------------

 NO OUTPUT CONTROL FOR STRESS PERIOD    4   TIME STEP    4
 ..........LAKE  1 IS DRY..........
 
 SOLVING FOR HEAD 
                                                   Max.-Head-Change                         Max.-Flux-Residual
  Residual-Control   Outer-Iter.   Inner-Iter.     Column Row Layer    Maximum-Head-Change  Column Row Layer    Maximum-Flux-Residual          L2-NORM 
          0                 1           2             6    3     2       0.1840857352E+00       6    3    2         0.2468281184E+01      0.4787926439E+01
          0                 2           2             6    3     2       0.1184763478E-01       6    3    2         0.1606641262E+00      0.2555310067E+00
          0                 3           1             6    3     2       0.7798132049E-03       6    3    2         0.1059507378E-01      0.1443078565E-01

    ------------------------------------------------
       NWT REQUIRED            3 OUTER ITERATIONS 
       AND A TOTAL OF          5 INNER ITERATIONS.
    ------------------------------------------------

 OUTPUT CONTROL FOR STRESS PERIOD    4   TIME STEP    5
    PRINT BUDGET
    SAVE BUDGET

            WELLS   PERIOD    4   STEP   5
 WELL      1   LAYER   2   ROW     6   COL     4   RATE    -1.00000    
 WELL      2   LAYER   2   ROW     6   COL     5   RATE    -1.00000    
 WELL      3   LAYER   2   ROW     7   COL     4   RATE    -1.00000    
 WELL      4   LAYER   2   ROW     7   COL     5   RATE    -1.00000    
 WELL      5   LAYER   2   ROW     8   COL     4   RATE    -1.00000    
 WELL      6   LAYER   2   ROW     8   COL     5   RATE    -1.00000    
 WELL      7   LAYER   2   ROW     9   COL     4   RATE    -1.00000    
 WELL      8   LAYER   2   ROW     9   COL     5   RATE    -1.00000    
 WELL      9   LAYER   2   ROW    10   COL     4   RATE    -1.00000    
 WELL     10   LAYER   2   ROW    10   COL     5   RATE    -1.00000    

  HEAD DEP BOUNDS   PERIOD    4   STEP     5
 BOUNDARY      1   LAYER   2   ROW    13   COL     1   RATE   -0.291889    
 BOUNDARY      2   LAYER   2   ROW    14   COL     9   RATE    0.214573    



 STREAM LISTING     PERIOD      4   STEP        5

 LAYER ROW COL. STREAM  RCH.  FLOW INTO     FLOW TO   FLOW OUT OF   OVRLND.     DIRECT     STREAM       STREAM     STREAM     STREAM   STREAMBED  STREAMBED
                SEG.NO.  NO.  STRM. RCH.    AQUIFER    STRM. RCH.    RUNOFF     PRECIP       ET          HEAD       DEPTH      WIDTH   CONDCTNC.   GRADIENT

   2    1    1     1     1    2.4000E+01  1.9380E+00   2.2062E+01  0.000E+00  0.000E+00  0.000E+00  1.09420E+03  1.150E+00  1.266E+01  5.698E-01  1.134E+00
   2    2    2     1     2    2.2062E+01  3.4701E+00   1.8592E+01  0.000E+00  0.000E+00  0.000E+00  1.08916E+03  1.106E+00  1.207E+01  8.452E-01  1.369E+00
   2    3    3     1     3    1.8592E+01  2.7105E+00   1.5881E+01  0.000E+00  0.000E+00  0.000E+00  1.08347E+03  1.054E+00  1.114E+01  6.687E-01  1.351E+00
   2    3    4     1     4    1.5881E+01  2.2923E+00   1.3589E+01  0.000E+00  0.000E+00  0.000E+00  1.07841E+03  1.007E+00  1.031E+01  5.721E-01  1.336E+00
   2    4    5     2     1    3.5891E+00  2.5654E+00   1.0236E+00  0.000E+00  0.000E+00  0.000E+00  1.07222E+03  2.890E-01  1.200E+01  7.800E-01  1.096E+00
   2    5    6     2     2    1.0236E+00  1.0236E+00   0.0000E+00  0.000E+00  0.000E+00  0.000E+00  1.06655E+03  3.994E-02  1.200E+01  6.000E-01  1.013E+00
   2    6    6     2     3    0.0000E+00  0.0000E+00   0.0000E+00  0.000E+00  0.000E+00  0.000E+00  1.06179E+03  0.000E+00  1.200E+01  6.000E-01  1.000E+00
   2    7    6     2     4    0.0000E+00  0.0000E+00   0.0000E+00  0.000E+00  0.000E+00  0.000E+00  1.05708E+03  0.000E+00  1.200E+01  6.000E-01  1.000E+00
   2    8    6     2     5    0.0000E+00  0.0000E+00   0.0000E+00  0.000E+00  0.000E+00  0.000E+00  1.05236E+03  0.000E+00  1.200E+01  6.000E-01  1.000E+00
   2    3    5     3     1    1.0000E+01  2.8252E+00   7.1748E+00  0.000E+00  0.000E+00  0.000E+00  1.07555E+03  1.909E+00  9.636E+00  7.227E-01  1.955E+00
   2    3    6     3     2    7.1748E+00  2.4905E+00   4.6843E+00  0.000E+00  0.000E+00  0.000E+00  1.07264E+03  1.727E+00  8.909E+00  6.682E-01  1.864E+00
   2    3    7     3     3    4.6843E+00  1.9718E+00   2.7125E+00  0.000E+00  0.000E+00  0.000E+00  1.06987E+03  1.555E+00  8.218E+00  5.547E-01  1.777E+00
   2    4    8     3     4    2.7125E+00  2.2567E+00   4.5579E-01  0.000E+00  0.000E+00  0.000E+00  1.06682E+03  1.364E+00  7.455E+00  6.709E-01  1.682E+00
   2    5    8     3     5    4.5579E-01  4.5579E-01   0.0000E+00  0.000E+00  0.000E+00  0.000E+00  1.06362E+03  0.000E+00  6.655E+00  4.991E-01  1.582E+00
   2    6    8     3     6    0.0000E+00  0.0000E+00   0.0000E+00  0.000E+00  0.000E+00  0.000E+00  1.06055E+03  0.000E+00  6.145E+00  1.844E-01  1.000E+00
   2    5   10     4     1    1.0000E+01  9.0525E-01   9.0947E+00  0.000E+00  0.000E+00  0.000E+00  1.07835E+03  6.210E-01  1.000E+01  2.500E-01  1.207E+00
   2    5    9     4     2    9.0947E+00  1.7835E+00   7.3113E+00  0.000E+00  0.000E+00  0.000E+00  1.07148E+03  5.670E-01  1.000E+01  5.000E-01  1.189E+00
   2    6    8     4     3    7.3113E+00  1.2257E+00   6.0855E+00  0.000E+00  0.000E+00  0.000E+00  1.06368E+03  5.021E-01  1.000E+01  3.500E-01  1.167E+00
   2    6    8     5     1    6.0855E+00  1.4716E+00   4.6139E+00  0.000E+00  0.000E+00  0.000E+00  1.05854E+03  5.396E-01  1.039E+01  4.158E-01  1.180E+00
   2    7    7     5     2    4.6139E+00  1.4897E+00   3.1242E+00  0.000E+00  0.000E+00  0.000E+00  1.05398E+03  4.817E-01  8.557E+00  4.279E-01  1.161E+00
   2    8    7     5     3    3.1242E+00  8.2855E-01   2.2957E+00  0.000E+00  0.000E+00  0.000E+00  1.04968E+03  4.253E-01  6.911E+00  2.419E-01  1.142E+00
   2    8    6     5     4    2.2957E+00  4.9455E-01   1.8011E+00  0.000E+00  0.000E+00  0.000E+00  1.04664E+03  3.856E-01  5.843E+00  1.461E-01  1.129E+00
   2    9    6     6     1    1.8011E+00  1.8011E+00   0.0000E+00  0.000E+00  0.000E+00  0.000E+00  1.04278E+03  5.669E-02  1.200E+01  6.000E-01  1.019E+00
   2   10    7     6     2    0.0000E+00  0.0000E+00   0.0000E+00  0.000E+00  0.000E+00  0.000E+00  1.03818E+03  0.000E+00  1.200E+01  6.000E-01  1.000E+00
   2   11    7     6     3    0.0000E+00  0.0000E+00   0.0000E+00  0.000E+00  0.000E+00  0.000E+00  1.03364E+03  0.000E+00  1.200E+01  6.000E-01  1.000E+00
   2   12    7     6     4    0.0000E+00  0.0000E+00   0.0000E+00  0.000E+00  0.000E+00  0.000E+00  1.02909E+03  0.000E+00  1.200E+01  6.000E-01  5.361E-01
   2   13    7     6     5    0.0000E+00 -7.5170E-01   7.5170E-01  0.000E+00  0.000E+00  0.000E+00  1.02601E+03  9.840E-02  1.200E+01  2.400E-01 -1.044E+00
   2   14    9     7     1    1.5000E+02  2.8572E+00   1.4714E+02  0.000E+00  0.000E+00  0.000E+00  1.03986E+03  2.284E+00  5.528E+01  5.591E+00  1.703E-01
   2   13    8     7     2    1.4714E+02  3.9051E+00   1.4324E+02  0.000E+00  0.000E+00  0.000E+00  1.03477E+03  2.266E+00  5.520E+01  6.140E+00  2.120E-01
   2   13    7     7     3    1.4324E+02  2.9369E+00   1.4030E+02  0.000E+00  0.000E+00  0.000E+00  1.02967E+03  2.247E+00  5.511E+01  5.573E+00  1.757E-01
   2   13    6     8     1    1.4105E+02  1.0517E+00   1.4000E+02  0.000E+00  0.000E+00  0.000E+00  1.02462E+03  2.749E+00  3.986E+01  4.062E+00  8.631E-02
   2   13    5     8     2    1.4000E+02 -2.2383E+00   1.4224E+02  0.000E+00  0.000E+00  0.000E+00  1.01838E+03  2.753E+00  3.992E+01  4.068E+00 -1.834E-01
   2   13    4     8     3    1.4224E+02 -5.3087E+00   1.4755E+02  0.000E+00  0.000E+00  0.000E+00  1.01216E+03  2.780E+00  4.032E+01  4.108E+00 -4.307E-01
   2   13    3     8     4    1.4755E+02 -6.0471E+00   1.5359E+02  0.000E+00  0.000E+00  0.000E+00  1.00595E+03  2.821E+00  4.090E+01  4.168E+00 -4.836E-01
   2   13    2     8     5    1.5359E+02 -3.5202E+00   1.5712E+02  0.000E+00  0.000E+00  0.000E+00  9.99729E+02  2.854E+00  4.138E+01  4.217E+00 -2.782E-01
   2   13    1     8     6    1.5712E+02 -2.3749E+00   1.5949E+02  0.000E+00  0.000E+00  0.000E+00  9.94749E+02  2.874E+00  4.168E+01  2.548E+00 -3.107E-01
   2    4    5     9     1    0.0000E+00  0.0000E+00   0.0000E+00  0.000E+00  0.000E+00  0.000E+00  1.06000E+03  0.000E+00  2.000E+01  2.000E-03  1.000E+00
   2    4    5    10     1    0.0000E+00  0.0000E+00   0.0000E+00  0.000E+00  0.000E+00  0.000E+00  1.08000E+03  0.000E+00  2.000E+01  2.000E-03  1.000E+00



 ..........LAKE  1 IS DRY..........

     SECTIONS OF THE LAKE BOTTOM HAVE BECOME DRY.  THE DRYSECTIONS
     LIE ABOVE THE FOLLOWING  1 AQUIFER CELLS (LAYER,ROW,COLUMN):
     (  2,  4,  5)  (

 PERIOD     4     TIME STEP     5     TIME STEP LENGTH  1.7520E+05
 PERIOD TIME  8.7600E+05     TOTAL SIMULATION TIME  8.7600E+06


                 HYDROLOGIC BUDGET SUMMARIES FOR SIMULATED LAKES
     (ALL FLUID FLUXES ARE VOLUMES ADDED TO THE LAKE DURING PRESENT TIME STEP)
     ----------------------------------------------------------------------------------------
 LAKE    STAGE         VOLUME     VOL. CHANGE      PRECIP     EVAPORATION    SPECIFIED RUNOFF     COMPUTED RUNOFF    TOTAL RUNOFF
   1  1.074500E+03  0.000000E+00  0.000000E+00  0.000000E+00  0.000000E+00   0.000000E+00          0.000000E+00      0.000000E+00

            GROUND WATER            SURFACE WATER        WATER          UZF INFIL.
 LAKE    INFLOW     OUTFLOW      INFLOW     OUTFLOW       USE        FROM LAKE
   1  0.0000E+00  0.0000E+00  0.0000E+00  0.0000E+00  0.0000E+00       0.0000E+00

      CONNECTED LAKE   TIME-STEP         STAGE-CHANGE          PERCENT
 LAKE    INFLUX      SURFACE AREA   TIME STEP  CUMULATIVE    DISCREPANCY
   1   0.0000E+00     0.0000E+00   0.0000E+00  0.0000E+00       0.000
 --------------------------------------------------------------------------------



            CUMULATIVE HYDROLOGIC BUDGET SUMMARIES FOR SIMULATED LAKES
     (ALL FLUID FLUXES ARE SUMS OF VOLUMES ADDED TO THE LAKE SINCE INITIAL TIME)
     ---------------------------------------------------------------------------
 LAKE       PRECIP       EVAP     SPECIFIED RUNOFF   COMPUTED RUNOFF   TOTAL RUNOFF
   1     0.0000E+00  0.0000E+00       0.0000E+00       0.0000E+00       0.0000E+00

            GROUND WATER            SURFACE WATER       UZF INFIL.
 LAKE    INFLOW     OUTFLOW      INFLOW     OUTFLOW     FROM LAKE
   1  0.0000E+00  0.0000E+00  0.0000E+00  0.0000E+00    0.0000E+00

         WATER    CONNECTED LAKE   CHANGE       PERCENT
 LAKE     USE         INFLUX       IN VOL.    DISCREPANCY
   1   0.0000E+00   0.0000E+00   0.0000E+00      0.000
 --------------------------------------------------------------------------------

 UBDSV3 SAVING "           GW ET" ON UNIT  61 AT TIME STEP     5, STRESS PERIOD   4
 UBDSV3 SAVING "    UZF RECHARGE" ON UNIT  61 AT TIME STEP     5, STRESS PERIOD   4
 UBDSV3 SAVING " SURFACE LEAKAGE" ON UNIT  61 AT TIME STEP     5, STRESS PERIOD   4
 UBDSV3 SAVING "       HORT+DUNN" ON UNIT  61 AT TIME STEP     5, STRESS PERIOD   4
 UBDSV3 SAVING "  STORAGE CHANGE" ON UNIT  61 AT TIME STEP     5, STRESS PERIOD   4


UNSATURATED ZONE PACKAGE VOLUMETRIC BUDGET FOR  TIME STEP     5 STRESS PERIOD    4
  ------------------------------------------------------------------------------



     CUMULATIVE VOLUMES      L**3       RATES FOR THIS TIME STEP      L**3/T
     ------------------                 ------------------------

           IN:                                      IN:
           ---                                      ---
        INFILTRATION =   549983460.0000          INFILTRATION =         169.0000

          OUT:                                     OUT:
          ----                                     ----
              UZF ET =   578047537.5262                UZF ET =          65.5411
        UZF RECHARGE =   202338490.0231          UZF RECHARGE =          29.5077

            IN - OUT =  -230402567.5494              IN - OUT =          73.9513

          STORAGE:                                 STORAGE:
          --------                                 --------
      STORAGE CHANGE =  -230305407.0839        STORAGE CHANGE =          73.9728

 PERCENT DISCREPANCY IS DIFFERENCE BETWEEN IN-OUT MINUS CHANGE IN STORAGE
 DIVIDED BY THE AVERAGE OF IN AND OUT TIMES 100

 PERCENT DISCREPANCY =          -0.00     PERCENT DISCREPANCY =          -0.01






1
  VOLUMETRIC BUDGET FOR ENTIRE MODEL AT END OF TIME STEP    5, STRESS PERIOD   4
  ------------------------------------------------------------------------------

     CUMULATIVE VOLUMES      L**3       RATES FOR THIS TIME STEP      L**3/T
     ------------------                 ------------------------

           IN:                                      IN:
           ---                                      ---
             STORAGE =    10167526.0000               STORAGE =           0.3187
       CONSTANT HEAD =           0.0000         CONSTANT HEAD =           0.0000
               WELLS =           0.0000                 WELLS =           0.0000
     HEAD DEP BOUNDS =     1883145.1250       HEAD DEP BOUNDS =           0.2146
      STREAM LEAKAGE =   412921920.0000        STREAM LEAKAGE =          44.7508
       LAKE  SEEPAGE =           0.0000         LAKE  SEEPAGE =           0.0000
        UZF RECHARGE =   202338480.0000          UZF RECHARGE =          29.5077
               GW ET =           0.0000                 GW ET =           0.0000
     SURFACE LEAKAGE =           0.0000       SURFACE LEAKAGE =           0.0000

            TOTAL IN =   627311040.0000              TOTAL IN =          74.7918

          OUT:                                     OUT:
          ----                                     ----
             STORAGE =   214538496.0000               STORAGE =          31.5291
       CONSTANT HEAD =           0.0000         CONSTANT HEAD =           0.0000
               WELLS =   140160000.0000                 WELLS =          10.0000
     HEAD DEP BOUNDS =     2527543.5000       HEAD DEP BOUNDS =           0.2919
      STREAM LEAKAGE =   160995040.0000        STREAM LEAKAGE =          20.2409
       LAKE  SEEPAGE =           0.0000         LAKE  SEEPAGE =           0.0000
        UZF RECHARGE =           0.0000          UZF RECHARGE =           0.0000
               GW ET =   109083144.0000                 GW ET =          12.7284
     SURFACE LEAKAGE =           0.0000       SURFACE LEAKAGE =           0.0000

           TOTAL OUT =   627304256.0000             TOTAL OUT =          74.7903

            IN - OUT =        6784.0000              IN - OUT =       1.4496E-03

 PERCENT DISCREPANCY =           0.00     PERCENT DISCREPANCY =           0.00






         TIME SUMMARY AT END OF TIME STEP    5 IN STRESS PERIOD    4
                    SECONDS     MINUTES      HOURS       DAYS        YEARS
                    -----------------------------------------------------------
   TIME STEP LENGTH 1.75200E+05  2920.0      48.667      2.0278     5.55175E-03
 STRESS PERIOD TIME 8.76000E+05  14600.      243.33      10.139     2.77588E-02
         TOTAL TIME 8.76000E+06 1.46000E+05  2433.3      101.39     0.27759    
1
 
 SOLVING FOR HEAD 
                                                   Max.-Head-Change                         Max.-Flux-Residual
  Residual-Control   Outer-Iter.   Inner-Iter.     Column Row Layer    Maximum-Head-Change  Column Row Layer    Maximum-Flux-Residual          L2-NORM 
          0                 1           2             6    3     2       0.1769330599E+00       6    3    2         0.2386523431E+01      0.4658609463E+01
          0                 2           2             6    3     2       0.1174721965E-01       6    3    2         0.1594450312E+00      0.2529907247E+00
          0                 3           1             6    3     2       0.7721675812E-03       6    3    2         0.1049219714E-01      0.1428439280E-01

    ------------------------------------------------
       NWT REQUIRED            3 OUTER ITERATIONS 
       AND A TOTAL OF          5 INNER ITERATIONS.
    ------------------------------------------------

 NO OUTPUT CONTROL FOR STRESS PERIOD    4   TIME STEP    6
 ..........LAKE  1 IS DRY..........
 
 SOLVING FOR HEAD 
                                                   Max.-Head-Change                         Max.-Flux-Residual
  Residual-Control   Outer-Iter.   Inner-Iter.     Column Row Layer    Maximum-Head-Change  Column Row Layer    Maximum-Flux-Residual          L2-NORM 
          0                 1           2             6    3     2       0.1704214738E+00       6    3    2         0.2298262723E+01      0.4521311205E+01
          0                 2           2             6    3     2       0.1131313267E-01       6    3    2         0.1536224822E+00      0.2464815709E+00
          0                 3           1             6    3     2       0.7430847716E-03       6    3    2         0.1009918037E-01      0.1376048920E-01

    ------------------------------------------------
       NWT REQUIRED            3 OUTER ITERATIONS 
       AND A TOTAL OF          5 INNER ITERATIONS.
    ------------------------------------------------

 NO OUTPUT CONTROL FOR STRESS PERIOD    4   TIME STEP    7
 ..........LAKE  1 IS DRY..........
 
 SOLVING FOR HEAD 
                                                   Max.-Head-Change                         Max.-Flux-Residual
  Residual-Control   Outer-Iter.   Inner-Iter.     Column Row Layer    Maximum-Head-Change  Column Row Layer    Maximum-Flux-Residual          L2-NORM 
          0                 1           2             6    3     2       0.1641943467E+00       6    3    2         0.2213471086E+01      0.4438370327E+01
          0                 2           2             6    3     2       0.1090100003E-01       6    3    2         0.1480930105E+00      0.2416695024E+00
          0                 3           1             6    3     2       0.7155087075E-03       6    3    2         0.9726234438E-02      0.1327605079E-01

    ------------------------------------------------
       NWT REQUIRED            3 OUTER ITERATIONS 
       AND A TOTAL OF          5 INNER ITERATIONS.
    ------------------------------------------------

 NO OUTPUT CONTROL FOR STRESS PERIOD    4   TIME STEP    8
 ..........LAKE  1 IS DRY..........
 
 SOLVING FOR HEAD 
                                                   Max.-Head-Change                         Max.-Flux-Residual
  Residual-Control   Outer-Iter.   Inner-Iter.     Column Row Layer    Maximum-Head-Change  Column Row Layer    Maximum-Flux-Residual          L2-NORM 
          0                 1           2             6    3     2       0.1582416500E+00       6    3    2         0.2132437066E+01      0.4301018690E+01
          0                 2           2             6    3     2       0.1050669162E-01       6    3    2         0.1428041520E+00      0.2347145135E+00
          0                 3           1             6    3     2       0.6891560903E-03       6    3    2         0.9369379158E-02      0.1281216992E-01

    ------------------------------------------------
       NWT REQUIRED            3 OUTER ITERATIONS 
       AND A TOTAL OF          5 INNER ITERATIONS.
    ------------------------------------------------

 NO OUTPUT CONTROL FOR STRESS PERIOD    4   TIME STEP    9
 ..........LAKE  1 IS DRY..........
 
 SOLVING FOR HEAD 
                                                   Max.-Head-Change                         Max.-Flux-Residual
  Residual-Control   Outer-Iter.   Inner-Iter.     Column Row Layer    Maximum-Head-Change  Column Row Layer    Maximum-Flux-Residual          L2-NORM 
          0                 1           2             6    3     2       0.1528027903E+00       6    3    2         0.2054973798E+01      0.4236445316E+01
          0                 2           2             6    3     2       0.1018582109E-01       6    3    2         0.1383164178E+00      0.2295005577E+00
          0                 3           1             6    3     2       0.6690890753E-03       6    3    2         0.9095683108E-02      0.1245886444E-01

    ------------------------------------------------
       NWT REQUIRED            3 OUTER ITERATIONS 
       AND A TOTAL OF          5 INNER ITERATIONS.
    ------------------------------------------------

 OUTPUT CONTROL FOR STRESS PERIOD    4   TIME STEP   10
    PRINT BUDGET
    SAVE BUDGET

            WELLS   PERIOD    4   STEP  10
 WELL      1   LAYER   2   ROW     6   COL     4   RATE    -1.00000    
 WELL      2   LAYER   2   ROW     6   COL     5   RATE    -1.00000    
 WELL      3   LAYER   2   ROW     7   COL     4   RATE    -1.00000    
 WELL      4   LAYER   2   ROW     7   COL     5   RATE    -1.00000    
 WELL      5   LAYER   2   ROW     8   COL     4   RATE    -1.00000    
 WELL      6   LAYER   2   ROW     8   COL     5   RATE    -1.00000    
 WELL      7   LAYER   2   ROW     9   COL     4   RATE    -1.00000    
 WELL      8   LAYER   2   ROW     9   COL     5   RATE    -1.00000    
 WELL      9   LAYER   2   ROW    10   COL     4   RATE    -1.00000    
 WELL     10   LAYER   2   ROW    10   COL     5   RATE    -1.00000    

  HEAD DEP BOUNDS   PERIOD    4   STEP    10
 BOUNDARY      1   LAYER   2   ROW    13   COL     1   RATE   -0.293002    
 BOUNDARY      2   LAYER   2   ROW    14   COL     9   RATE    0.214488    



 STREAM LISTING     PERIOD      4   STEP       10

 LAYER ROW COL. STREAM  RCH.  FLOW INTO     FLOW TO   FLOW OUT OF   OVRLND.     DIRECT     STREAM       STREAM     STREAM     STREAM   STREAMBED  STREAMBED
                SEG.NO.  NO.  STRM. RCH.    AQUIFER    STRM. RCH.    RUNOFF     PRECIP       ET          HEAD       DEPTH      WIDTH   CONDCTNC.   GRADIENT

   2    1    1     1     1    2.5000E+01  1.9805E+00   2.3019E+01  0.000E+00  0.000E+00  0.000E+00  1.09421E+03  1.165E+00  1.286E+01  5.788E-01  1.140E+00
   2    2    2     1     2    2.3019E+01  3.5424E+00   1.9477E+01  0.000E+00  0.000E+00  0.000E+00  1.08918E+03  1.121E+00  1.228E+01  8.596E-01  1.374E+00
   2    3    3     1     3    1.9477E+01  2.7861E+00   1.6691E+01  0.000E+00  0.000E+00  0.000E+00  1.08349E+03  1.068E+00  1.141E+01  6.848E-01  1.356E+00
   2    3    4     1     4    1.6691E+01  2.3604E+00   1.4331E+01  0.000E+00  0.000E+00  0.000E+00  1.07843E+03  1.022E+00  1.057E+01  5.869E-01  1.341E+00
   2    4    5     2     1    4.3306E+00  2.6054E+00   1.7251E+00  0.000E+00  0.000E+00  0.000E+00  1.07227E+03  3.403E-01  1.200E+01  7.800E-01  1.113E+00
   2    5    6     2     2    1.7251E+00  1.7251E+00   0.0000E+00  0.000E+00  0.000E+00  0.000E+00  1.06656E+03  5.463E-02  1.200E+01  6.000E-01  1.018E+00
   2    6    6     2     3    0.0000E+00  0.0000E+00   0.0000E+00  0.000E+00  0.000E+00  0.000E+00  1.06179E+03  0.000E+00  1.200E+01  6.000E-01  1.000E+00
   2    7    6     2     4    0.0000E+00  0.0000E+00   0.0000E+00  0.000E+00  0.000E+00  0.000E+00  1.05708E+03  0.000E+00  1.200E+01  6.000E-01  1.000E+00
   2    8    6     2     5    0.0000E+00  0.0000E+00   0.0000E+00  0.000E+00  0.000E+00  0.000E+00  1.05236E+03  0.000E+00  1.200E+01  6.000E-01  1.000E+00
   2    3    5     3     1    1.0000E+01  2.8252E+00   7.1748E+00  0.000E+00  0.000E+00  0.000E+00  1.07555E+03  1.909E+00  9.636E+00  7.227E-01  1.955E+00
   2    3    6     3     2    7.1748E+00  2.4905E+00   4.6843E+00  0.000E+00  0.000E+00  0.000E+00  1.07264E+03  1.727E+00  8.909E+00  6.682E-01  1.864E+00
   2    3    7     3     3    4.6843E+00  1.9718E+00   2.7125E+00  0.000E+00  0.000E+00  0.000E+00  1.06987E+03  1.555E+00  8.218E+00  5.547E-01  1.777E+00
   2    4    8     3     4    2.7125E+00  2.2567E+00   4.5579E-01  0.000E+00  0.000E+00  0.000E+00  1.06682E+03  1.364E+00  7.455E+00  6.709E-01  1.682E+00
   2    5    8     3     5    4.5579E-01  4.5579E-01   0.0000E+00  0.000E+00  0.000E+00  0.000E+00  1.06362E+03  0.000E+00  6.655E+00  4.991E-01  1.582E+00
   2    6    8     3     6    0.0000E+00  0.0000E+00   0.0000E+00  0.000E+00  0.000E+00  0.000E+00  1.06055E+03  0.000E+00  6.145E+00  1.844E-01  1.000E+00
   2    5   10     4     1    1.0000E+01  9.0525E-01   9.0947E+00  0.000E+00  0.000E+00  0.000E+00  1.07835E+03  6.210E-01  1.000E+01  2.500E-01  1.207E+00
   2    5    9     4     2    9.0947E+00  1.7835E+00   7.3113E+00  0.000E+00  0.000E+00  0.000E+00  1.07148E+03  5.670E-01  1.000E+01  5.000E-01  1.189E+00
   2    6    8     4     3    7.3113E+00  1.2257E+00   6.0855E+00  0.000E+00  0.000E+00  0.000E+00  1.06368E+03  5.021E-01  1.000E+01  3.500E-01  1.167E+00
   2    6    8     5     1    6.0855E+00  1.4716E+00   4.6139E+00  0.000E+00  0.000E+00  0.000E+00  1.05854E+03  5.396E-01  1.039E+01  4.158E-01  1.180E+00
   2    7    7     5     2    4.6139E+00  1.4897E+00   3.1242E+00  0.000E+00  0.000E+00  0.000E+00  1.05398E+03  4.817E-01  8.557E+00  4.279E-01  1.161E+00
   2    8    7     5     3    3.1242E+00  8.2855E-01   2.2957E+00  0.000E+00  0.000E+00  0.000E+00  1.04968E+03  4.253E-01  6.911E+00  2.419E-01  1.142E+00
   2    8    6     5     4    2.2957E+00  4.9455E-01   1.8011E+00  0.000E+00  0.000E+00  0.000E+00  1.04664E+03  3.856E-01  5.843E+00  1.461E-01  1.129E+00
   2    9    6     6     1    1.8011E+00  1.8011E+00   0.0000E+00  0.000E+00  0.000E+00  0.000E+00  1.04278E+03  5.669E-02  1.200E+01  6.000E-01  1.019E+00
   2   10    7     6     2    0.0000E+00  0.0000E+00   0.0000E+00  0.000E+00  0.000E+00  0.000E+00  1.03818E+03  0.000E+00  1.200E+01  6.000E-01  1.000E+00
   2   11    7     6     3    0.0000E+00  0.0000E+00   0.0000E+00  0.000E+00  0.000E+00  0.000E+00  1.03364E+03  0.000E+00  1.200E+01  6.000E-01  1.000E+00
   2   12    7     6     4    0.0000E+00  0.0000E+00   0.0000E+00  0.000E+00  0.000E+00  0.000E+00  1.02909E+03  0.000E+00  1.200E+01  6.000E-01  5.293E-01
   2   13    7     6     5    0.0000E+00 -7.5955E-01   7.5955E-01  0.000E+00  0.000E+00  0.000E+00  1.02601E+03  9.901E-02  1.200E+01  2.400E-01 -1.055E+00
   2   14    9     7     1    1.5000E+02  2.8448E+00   1.4716E+02  0.000E+00  0.000E+00  0.000E+00  1.03986E+03  2.284E+00  5.528E+01  5.591E+00  1.696E-01
   2   13    8     7     2    1.4716E+02  3.8735E+00   1.4328E+02  0.000E+00  0.000E+00  0.000E+00  1.03477E+03  2.266E+00  5.520E+01  6.140E+00  2.103E-01
   2   13    7     7     3    1.4328E+02  2.7553E+00   1.4053E+02  0.000E+00  0.000E+00  0.000E+00  1.02967E+03  2.248E+00  5.512E+01  5.573E+00  1.648E-01
   2   13    6     8     1    1.4129E+02  8.8558E-01   1.4040E+02  0.000E+00  0.000E+00  0.000E+00  1.02463E+03  2.751E+00  3.989E+01  4.065E+00  7.262E-02
   2   13    5     8     2    1.4040E+02 -2.3659E+00   1.4277E+02  0.000E+00  0.000E+00  0.000E+00  1.01838E+03  2.756E+00  3.997E+01  4.073E+00 -1.936E-01
   2   13    4     8     3    1.4277E+02 -5.4276E+00   1.4819E+02  0.000E+00  0.000E+00  0.000E+00  1.01216E+03  2.785E+00  4.038E+01  4.115E+00 -4.397E-01
   2   13    3     8     4    1.4819E+02 -6.1515E+00   1.5435E+02  0.000E+00  0.000E+00  0.000E+00  1.00595E+03  2.826E+00  4.097E+01  4.175E+00 -4.911E-01
   2   13    2     8     5    1.5435E+02 -3.5667E+00   1.5791E+02  0.000E+00  0.000E+00  0.000E+00  9.99734E+02  2.859E+00  4.146E+01  4.225E+00 -2.814E-01
   2   13    1     8     6    1.5791E+02 -2.4399E+00   1.6035E+02  0.000E+00  0.000E+00  0.000E+00  9.94755E+02  2.880E+00  4.176E+01  2.553E+00 -3.185E-01
   2    4    5     9     1    0.0000E+00  0.0000E+00   0.0000E+00  0.000E+00  0.000E+00  0.000E+00  1.06000E+03  0.000E+00  2.000E+01  2.000E-03  1.000E+00
   2    4    5    10     1    0.0000E+00  0.0000E+00   0.0000E+00  0.000E+00  0.000E+00  0.000E+00  1.08000E+03  0.000E+00  2.000E+01  2.000E-03  1.000E+00



 ..........LAKE  1 IS DRY..........

     SECTIONS OF THE LAKE BOTTOM HAVE BECOME DRY.  THE DRYSECTIONS
     LIE ABOVE THE FOLLOWING  1 AQUIFER CELLS (LAYER,ROW,COLUMN):
     (  2,  4,  5)  (

 PERIOD     4     TIME STEP    10     TIME STEP LENGTH  1.7520E+05
 PERIOD TIME  1.7520E+06     TOTAL SIMULATION TIME  9.6360E+06


                 HYDROLOGIC BUDGET SUMMARIES FOR SIMULATED LAKES
     (ALL FLUID FLUXES ARE VOLUMES ADDED TO THE LAKE DURING PRESENT TIME STEP)
     ----------------------------------------------------------------------------------------
 LAKE    STAGE         VOLUME     VOL. CHANGE      PRECIP     EVAPORATION    SPECIFIED RUNOFF     COMPUTED RUNOFF    TOTAL RUNOFF
   1  1.074500E+03  0.000000E+00  0.000000E+00  0.000000E+00  0.000000E+00   0.000000E+00          0.000000E+00      0.000000E+00

            GROUND WATER            SURFACE WATER        WATER          UZF INFIL.
 LAKE    INFLOW     OUTFLOW      INFLOW     OUTFLOW       USE        FROM LAKE
   1  0.0000E+00  0.0000E+00  0.0000E+00  0.0000E+00  0.0000E+00       0.0000E+00

      CONNECTED LAKE   TIME-STEP         STAGE-CHANGE          PERCENT
 LAKE    INFLUX      SURFACE AREA   TIME STEP  CUMULATIVE    DISCREPANCY
   1   0.0000E+00     0.0000E+00   0.0000E+00  0.0000E+00       0.000
 --------------------------------------------------------------------------------



            CUMULATIVE HYDROLOGIC BUDGET SUMMARIES FOR SIMULATED LAKES
     (ALL FLUID FLUXES ARE SUMS OF VOLUMES ADDED TO THE LAKE SINCE INITIAL TIME)
     ---------------------------------------------------------------------------
 LAKE       PRECIP       EVAP     SPECIFIED RUNOFF   COMPUTED RUNOFF   TOTAL RUNOFF
   1     0.0000E+00  0.0000E+00       0.0000E+00       0.0000E+00       0.0000E+00

            GROUND WATER            SURFACE WATER       UZF INFIL.
 LAKE    INFLOW     OUTFLOW      INFLOW     OUTFLOW     FROM LAKE
   1  0.0000E+00  0.0000E+00  0.0000E+00  0.0000E+00    0.0000E+00

         WATER    CONNECTED LAKE   CHANGE       PERCENT
 LAKE     USE         INFLUX       IN VOL.    DISCREPANCY
   1   0.0000E+00   0.0000E+00   0.0000E+00      0.000
 --------------------------------------------------------------------------------

 UBDSV3 SAVING "           GW ET" ON UNIT  61 AT TIME STEP    10, STRESS PERIOD   4
 UBDSV3 SAVING "    UZF RECHARGE" ON UNIT  61 AT TIME STEP    10, STRESS PERIOD   4
 UBDSV3 SAVING " SURFACE LEAKAGE" ON UNIT  61 AT TIME STEP    10, STRESS PERIOD   4
 UBDSV3 SAVING "       HORT+DUNN" ON UNIT  61 AT TIME STEP    10, STRESS PERIOD   4
 UBDSV3 SAVING "  STORAGE CHANGE" ON UNIT  61 AT TIME STEP    10, STRESS PERIOD   4


UNSATURATED ZONE PACKAGE VOLUMETRIC BUDGET FOR  TIME STEP    10 STRESS PERIOD    4
  ------------------------------------------------------------------------------



     CUMULATIVE VOLUMES      L**3       RATES FOR THIS TIME STEP      L**3/T
     ------------------                 ------------------------

           IN:                                      IN:
           ---                                      ---
        INFILTRATION =   698027460.0000          INFILTRATION =         169.0000

          OUT:                                     OUT:
          ----                                     ----
              UZF ET =   639186581.7040                UZF ET =          72.4702
        UZF RECHARGE =   227036180.3105          UZF RECHARGE =          27.8285

            IN - OUT =  -168195302.0145              IN - OUT =          68.7014

          STORAGE:                                 STORAGE:
          --------                                 --------
      STORAGE CHANGE =  -168078022.5278        STORAGE CHANGE =          68.7135

 PERCENT DISCREPANCY IS DIFFERENCE BETWEEN IN-OUT MINUS CHANGE IN STORAGE
 DIVIDED BY THE AVERAGE OF IN AND OUT TIMES 100

 PERCENT DISCREPANCY =          -0.00     PERCENT DISCREPANCY =          -0.01






1
  VOLUMETRIC BUDGET FOR ENTIRE MODEL AT END OF TIME STEP   10, STRESS PERIOD   4
  ------------------------------------------------------------------------------

     CUMULATIVE VOLUMES      L**3       RATES FOR THIS TIME STEP      L**3/T
     ------------------                 ------------------------

           IN:                                      IN:
           ---                                      ---
             STORAGE =    10377340.0000               STORAGE =           0.2115
       CONSTANT HEAD =           0.0000         CONSTANT HEAD =           0.0000
               WELLS =           0.0000                 WELLS =           0.0000
     HEAD DEP BOUNDS =     2071074.1250       HEAD DEP BOUNDS =           0.2145
      STREAM LEAKAGE =   452511936.0000        STREAM LEAKAGE =          45.3591
       LAKE  SEEPAGE =           0.0000         LAKE  SEEPAGE =           0.0000
        UZF RECHARGE =   227036176.0000          UZF RECHARGE =          27.8285
               GW ET =           0.0000                 GW ET =           0.0000
     SURFACE LEAKAGE =           0.0000       SURFACE LEAKAGE =           0.0000

            TOTAL IN =   691996544.0000              TOTAL IN =          73.6135

          OUT:                                     OUT:
          ----                                     ----
             STORAGE =   241102176.0000               STORAGE =          29.9893
       CONSTANT HEAD =           0.0000         CONSTANT HEAD =           0.0000
               WELLS =   148920000.0000                 WELLS =          10.0000
     HEAD DEP BOUNDS =     2783861.5000       HEAD DEP BOUNDS =           0.2930
      STREAM LEAKAGE =   178989184.0000        STREAM LEAKAGE =          20.7111
       LAKE  SEEPAGE =           0.0000         LAKE  SEEPAGE =           0.0000
        UZF RECHARGE =           0.0000          UZF RECHARGE =           0.0000
               GW ET =   120193328.0000                 GW ET =          12.6189
     SURFACE LEAKAGE =           0.0000       SURFACE LEAKAGE =           0.0000

           TOTAL OUT =   691988544.0000             TOTAL OUT =          73.6123

            IN - OUT =        8000.0000              IN - OUT =       1.1673E-03

 PERCENT DISCREPANCY =           0.00     PERCENT DISCREPANCY =           0.00






         TIME SUMMARY AT END OF TIME STEP   10 IN STRESS PERIOD    4
                    SECONDS     MINUTES      HOURS       DAYS        YEARS
                    -----------------------------------------------------------
   TIME STEP LENGTH 1.75200E+05  2920.0      48.667      2.0278     5.55175E-03
 STRESS PERIOD TIME 1.75200E+06  29200.      486.67      20.278     5.55175E-02
         TOTAL TIME 9.63600E+06 1.60600E+05  2676.7      111.53     0.30535    
1
 
 SOLVING FOR HEAD 
                                                   Max.-Head-Change                         Max.-Flux-Residual
  Residual-Control   Outer-Iter.   Inner-Iter.     Column Row Layer    Maximum-Head-Change  Column Row Layer    Maximum-Flux-Residual          L2-NORM 
          0                 1           2             6    3     2       0.1478540982E+00       6    3    2         0.1984730214E+01      0.4238640844E+01
          0                 2           2             6    3     2       0.9883066074E-02       6    3    2         0.1342093472E+00      0.2252267114E+00
          0                 3           1             6    3     2       0.6492585265E-03       6    3    2         0.8825986951E-02      0.1210438967E-01

    ------------------------------------------------
       NWT REQUIRED            3 OUTER ITERATIONS 
       AND A TOTAL OF          5 INNER ITERATIONS.
    ------------------------------------------------

 NO OUTPUT CONTROL FOR STRESS PERIOD    4   TIME STEP   11
 ..........LAKE  1 IS DRY..........
 
 SOLVING FOR HEAD 
                                                   Max.-Head-Change                         Max.-Flux-Residual
  Residual-Control   Outer-Iter.   Inner-Iter.     Column Row Layer    Maximum-Head-Change  Column Row Layer    Maximum-Flux-Residual          L2-NORM 
          0                 1           2             6    2     2       0.2138881468E+00       6    2    2         0.2789095885E+01      0.5562109453E+01
          0                 2           2             6    2     2       0.1415774097E-01       6    2    2         0.1845668161E+00      0.3399750327E+00
          0                 3           1             6    2     2       0.9377283070E-03       6    2    2         0.1222268344E-01      0.2084916715E-01

    ------------------------------------------------
       NWT REQUIRED            3 OUTER ITERATIONS 
       AND A TOTAL OF          5 INNER ITERATIONS.
    ------------------------------------------------

 NO OUTPUT CONTROL FOR STRESS PERIOD    4   TIME STEP   12
 ..........LAKE  1 IS DRY..........
 
 SOLVING FOR HEAD 
                                                   Max.-Head-Change                         Max.-Flux-Residual
  Residual-Control   Outer-Iter.   Inner-Iter.     Column Row Layer    Maximum-Head-Change  Column Row Layer    Maximum-Flux-Residual          L2-NORM 
          0                 1           2             6    2     2       0.2220862609E+00       6    2    2         0.2897406127E+01      0.5596134240E+01
          0                 2           2             6    2     2       0.1474485804E-01       6    2    2         0.1923213050E+00      0.3448886459E+00
          0                 3           1             6    2     2       0.1022071960E-02       6    2    2         0.1333386187E-01      0.2193089129E-01
          0                 4           1             6    2     2       0.7081086508E-04       6    2    2         0.9240007843E-03      0.1463093770E-02

    ------------------------------------------------
       NWT REQUIRED            4 OUTER ITERATIONS 
       AND A TOTAL OF          6 INNER ITERATIONS.
    ------------------------------------------------

 NO OUTPUT CONTROL FOR STRESS PERIOD    4   TIME STEP   13
 ..........LAKE  1 IS DRY..........
 
 SOLVING FOR HEAD 
                                                   Max.-Head-Change                         Max.-Flux-Residual
  Residual-Control   Outer-Iter.   Inner-Iter.     Column Row Layer    Maximum-Head-Change  Column Row Layer    Maximum-Flux-Residual          L2-NORM 
          0                 1           2             6    2     2       0.2208712043E+00       6    2    2         0.2881944947E+01      0.5655889743E+01
          0                 2           2             6    2     2       0.1526120555E-01       6    2    2         0.1991407720E+00      0.3523989966E+00
          0                 3           1             6    2     2       0.1008580472E-02       6    2    2         0.1315645024E-01      0.2187306191E-01
          0                 4           1             6    2     2       0.6669748434E-04       6    2    2         0.8699199671E-03      0.1406164967E-02

    ------------------------------------------------
       NWT REQUIRED            4 OUTER ITERATIONS 
       AND A TOTAL OF          6 INNER ITERATIONS.
    ------------------------------------------------

 NO OUTPUT CONTROL FOR STRESS PERIOD    4   TIME STEP   14
 ..........LAKE  1 IS DRY..........
 
 SOLVING FOR HEAD 
                                                   Max.-Head-Change                         Max.-Flux-Residual
  Residual-Control   Outer-Iter.   Inner-Iter.     Column Row Layer    Maximum-Head-Change  Column Row Layer    Maximum-Flux-Residual          L2-NORM 
          0                 1           2             6    2     2       0.2196212599E+00       6    2    2         0.2866018827E+01      0.5585549241E+01
          0                 2           2             6    2     2       0.1451443061E-01       6    2    2         0.1892962913E+00      0.3418665695E+00
          0                 3           1             6    2     2       0.9606957179E-03       6    2    2         0.1252266583E-01      0.2109096116E-01

    ------------------------------------------------
       NWT REQUIRED            3 OUTER ITERATIONS 
       AND A TOTAL OF          5 INNER ITERATIONS.
    ------------------------------------------------

 NO OUTPUT CONTROL FOR STRESS PERIOD    4   TIME STEP   15



 STREAM LISTING     PERIOD      4   STEP       15

 LAYER ROW COL. STREAM  RCH.  FLOW INTO     FLOW TO   FLOW OUT OF   OVRLND.     DIRECT     STREAM       STREAM     STREAM     STREAM   STREAMBED  STREAMBED
                SEG.NO.  NO.  STRM. RCH.    AQUIFER    STRM. RCH.    RUNOFF     PRECIP       ET          HEAD       DEPTH      WIDTH   CONDCTNC.   GRADIENT

   2    1    1     1     1    2.1000E+01  1.8258E+00   1.9174E+01  0.000E+00  0.000E+00  0.000E+00  1.09415E+03  1.102E+00  1.202E+01  5.409E-01  1.125E+00
   2    2    2     1     2    1.9174E+01  3.1977E+00   1.5976E+01  0.000E+00  0.000E+00  0.000E+00  1.08912E+03  1.060E+00  1.125E+01  7.877E-01  1.353E+00
   2    3    3     1     3    1.5976E+01  2.4784E+00   1.3498E+01  0.000E+00  0.000E+00  0.000E+00  1.08343E+03  1.007E+00  1.031E+01  6.185E-01  1.336E+00
   2    3    4     1     4    1.3498E+01  2.0834E+00   1.1415E+01  0.000E+00  0.000E+00  0.000E+00  1.07837E+03  9.591E-01  9.481E+00  5.262E-01  1.320E+00
   2    4    5     2     1    1.4147E+00  1.4147E+00   0.0000E+00  0.000E+00  0.000E+00  0.000E+00  1.07198E+03  4.850E-02  1.200E+01  7.800E-01  1.016E+00
   2    5    6     2     2    0.0000E+00  0.0000E+00   0.0000E+00  0.000E+00  0.000E+00  0.000E+00  1.06651E+03  0.000E+00  1.200E+01  6.000E-01  1.000E+00
   2    6    6     2     3    0.0000E+00  0.0000E+00   0.0000E+00  0.000E+00  0.000E+00  0.000E+00  1.06179E+03  0.000E+00  1.200E+01  6.000E-01  1.000E+00
   2    7    6     2     4    0.0000E+00  0.0000E+00   0.0000E+00  0.000E+00  0.000E+00  0.000E+00  1.05708E+03  0.000E+00  1.200E+01  6.000E-01  1.000E+00
   2    8    6     2     5    0.0000E+00  0.0000E+00   0.0000E+00  0.000E+00  0.000E+00  0.000E+00  1.05236E+03  0.000E+00  1.200E+01  6.000E-01  1.000E+00
   2    3    5     3     1    1.0000E+01  2.8252E+00   7.1748E+00  0.000E+00  0.000E+00  0.000E+00  1.07555E+03  1.909E+00  9.636E+00  7.227E-01  1.955E+00
   2    3    6     3     2    7.1748E+00  2.4905E+00   4.6843E+00  0.000E+00  0.000E+00  0.000E+00  1.07264E+03  1.727E+00  8.909E+00  6.682E-01  1.864E+00
   2    3    7     3     3    4.6843E+00  1.9718E+00   2.7125E+00  0.000E+00  0.000E+00  0.000E+00  1.06987E+03  1.555E+00  8.218E+00  5.547E-01  1.777E+00
   2    4    8     3     4    2.7125E+00  2.2567E+00   4.5579E-01  0.000E+00  0.000E+00  0.000E+00  1.06682E+03  1.364E+00  7.455E+00  6.709E-01  1.682E+00
   2    5    8     3     5    4.5579E-01  4.5579E-01   0.0000E+00  0.000E+00  0.000E+00  0.000E+00  1.06362E+03  0.000E+00  6.655E+00  4.991E-01  1.582E+00
   2    6    8     3     6    0.0000E+00  0.0000E+00   0.0000E+00  0.000E+00  0.000E+00  0.000E+00  1.06055E+03  0.000E+00  6.145E+00  1.844E-01  1.000E+00
   2    5   10     4     1    1.0000E+01  9.0525E-01   9.0947E+00  0.000E+00  0.000E+00  0.000E+00  1.07835E+03  6.210E-01  1.000E+01  2.500E-01  1.207E+00
   2    5    9     4     2    9.0947E+00  1.7835E+00   7.3113E+00  0.000E+00  0.000E+00  0.000E+00  1.07148E+03  5.670E-01  1.000E+01  5.000E-01  1.189E+00
   2    6    8     4     3    7.3113E+00  1.2257E+00   6.0855E+00  0.000E+00  0.000E+00  0.000E+00  1.06368E+03  5.021E-01  1.000E+01  3.500E-01  1.167E+00
   2    6    8     5     1    6.0855E+00  1.4716E+00   4.6139E+00  0.000E+00  0.000E+00  0.000E+00  1.05854E+03  5.396E-01  1.039E+01  4.158E-01  1.180E+00
   2    7    7     5     2    4.6139E+00  1.4897E+00   3.1242E+00  0.000E+00  0.000E+00  0.000E+00  1.05398E+03  4.817E-01  8.557E+00  4.279E-01  1.161E+00
   2    8    7     5     3    3.1242E+00  8.2855E-01   2.2957E+00  0.000E+00  0.000E+00  0.000E+00  1.04968E+03  4.253E-01  6.911E+00  2.419E-01  1.142E+00
   2    8    6     5     4    2.2957E+00  4.9455E-01   1.8011E+00  0.000E+00  0.000E+00  0.000E+00  1.04664E+03  3.856E-01  5.843E+00  1.461E-01  1.129E+00
   2    9    6     6     1    1.8011E+00  1.8011E+00   0.0000E+00  0.000E+00  0.000E+00  0.000E+00  1.04278E+03  5.669E-02  1.200E+01  6.000E-01  1.019E+00
   2   10    7     6     2    0.0000E+00  0.0000E+00   0.0000E+00  0.000E+00  0.000E+00  0.000E+00  1.03818E+03  0.000E+00  1.200E+01  6.000E-01  1.000E+00
   2   11    7     6     3    0.0000E+00  0.0000E+00   0.0000E+00  0.000E+00  0.000E+00  0.000E+00  1.03364E+03  0.000E+00  1.200E+01  6.000E-01  1.000E+00
   2   12    7     6     4    0.0000E+00  0.0000E+00   0.0000E+00  0.000E+00  0.000E+00  0.000E+00  1.02909E+03  0.000E+00  1.200E+01  6.000E-01  5.206E-01
   2   13    7     6     5    0.0000E+00 -7.6291E-01   7.6291E-01  0.000E+00  0.000E+00  0.000E+00  1.02601E+03  9.927E-02  1.200E+01  2.400E-01 -1.060E+00
   2   14    9     7     1    1.5000E+02  2.8206E+00   1.4718E+02  0.000E+00  0.000E+00  0.000E+00  1.03986E+03  2.284E+00  5.528E+01  5.591E+00  1.682E-01
   2   13    8     7     2    1.4718E+02  3.7893E+00   1.4339E+02  0.000E+00  0.000E+00  0.000E+00  1.03477E+03  2.266E+00  5.520E+01  6.141E+00  2.057E-01
   2   13    7     7     3    1.4339E+02  2.6804E+00   1.4071E+02  0.000E+00  0.000E+00  0.000E+00  1.02967E+03  2.249E+00  5.512E+01  5.574E+00  1.603E-01
   2   13    6     8     1    1.4147E+02  8.0922E-01   1.4066E+02  0.000E+00  0.000E+00  0.000E+00  1.02463E+03  2.753E+00  3.991E+01  4.067E+00  6.632E-02
   2   13    5     8     2    1.4066E+02 -2.4369E+00   1.4310E+02  0.000E+00  0.000E+00  0.000E+00  1.01838E+03  2.759E+00  4.000E+01  4.076E+00 -1.993E-01
   2   13    4     8     3    1.4310E+02 -5.4938E+00   1.4859E+02  0.000E+00  0.000E+00  0.000E+00  1.01216E+03  2.787E+00  4.042E+01  4.119E+00 -4.446E-01
   2   13    3     8     4    1.4859E+02 -6.2119E+00   1.5481E+02  0.000E+00  0.000E+00  0.000E+00  1.00595E+03  2.829E+00  4.102E+01  4.180E+00 -4.954E-01
   2   13    2     8     5    1.5481E+02 -3.7168E+00   1.5852E+02  0.000E+00  0.000E+00  0.000E+00  9.99738E+02  2.863E+00  4.152E+01  4.231E+00 -2.929E-01
   2   13    1     8     6    1.5852E+02 -2.4826E+00   1.6101E+02  0.000E+00  0.000E+00  0.000E+00  9.94759E+02  2.884E+00  4.182E+01  2.557E+00 -3.236E-01
   2    4    5     9     1    0.0000E+00  0.0000E+00   0.0000E+00  0.000E+00  0.000E+00  0.000E+00  1.06000E+03  0.000E+00  2.000E+01  2.000E-03  1.000E+00
   2    4    5    10     1    0.0000E+00  0.0000E+00   0.0000E+00  0.000E+00  0.000E+00  0.000E+00  1.08000E+03  0.000E+00  2.000E+01  2.000E-03  1.000E+00



 ..........LAKE  1 IS DRY..........


UNSATURATED ZONE PACKAGE VOLUMETRIC BUDGET FOR  TIME STEP    15 STRESS PERIOD    4
  ------------------------------------------------------------------------------



     CUMULATIVE VOLUMES      L**3       RATES FOR THIS TIME STEP      L**3/T
     ------------------                 ------------------------

           IN:                                      IN:
           ---                                      ---
        INFILTRATION =   846071460.0000          INFILTRATION =         169.0000

          OUT:                                     OUT:
          ----                                     ----
              UZF ET =   704963468.7224                UZF ET =          76.7195
        UZF RECHARGE =   255085084.4629          UZF RECHARGE =          33.2556

            IN - OUT =  -113977093.1853              IN - OUT =          59.0248

          STORAGE:                                 STORAGE:
          --------                                 --------
      STORAGE CHANGE =  -113848384.8819        STORAGE CHANGE =          59.0430

 PERCENT DISCREPANCY IS DIFFERENCE BETWEEN IN-OUT MINUS CHANGE IN STORAGE
 DIVIDED BY THE AVERAGE OF IN AND OUT TIMES 100

 PERCENT DISCREPANCY =          -0.00     PERCENT DISCREPANCY =          -0.01






1
  VOLUMETRIC BUDGET FOR ENTIRE MODEL AT END OF TIME STEP   15, STRESS PERIOD   4
  ------------------------------------------------------------------------------

     CUMULATIVE VOLUMES      L**3       RATES FOR THIS TIME STEP      L**3/T
     ------------------                 ------------------------

           IN:                                      IN:
           ---                                      ---
             STORAGE =    11354570.0000               STORAGE =           1.7616
       CONSTANT HEAD =           0.0000         CONSTANT HEAD =           0.0000
               WELLS =           0.0000                 WELLS =           0.0000
     HEAD DEP BOUNDS =     2258881.0000       HEAD DEP BOUNDS =           0.2143
      STREAM LEAKAGE =   489991648.0000        STREAM LEAKAGE =          41.0995
       LAKE  SEEPAGE =           0.0000         LAKE  SEEPAGE =           0.0000
        UZF RECHARGE =   255085088.0000          UZF RECHARGE =          33.2556
               GW ET =           0.0000                 GW ET =           0.0000
     SURFACE LEAKAGE =           0.0000       SURFACE LEAKAGE =           0.0000

            TOTAL IN =   758690176.0000              TOTAL IN =          76.3311

          OUT:                                     OUT:
          ----                                     ----
             STORAGE =   269416704.0000               STORAGE =          32.4161
       CONSTANT HEAD =           0.0000         CONSTANT HEAD =           0.0000
               WELLS =   157680000.0000                 WELLS =          10.0000
     HEAD DEP BOUNDS =     3040940.7500       HEAD DEP BOUNDS =           0.2937
      STREAM LEAKAGE =   197356656.0000        STREAM LEAKAGE =          21.1049
       LAKE  SEEPAGE =           0.0000         LAKE  SEEPAGE =           0.0000
        UZF RECHARGE =           0.0000          UZF RECHARGE =           0.0000
               GW ET =   131186616.0000                 GW ET =          12.5135
     SURFACE LEAKAGE =           0.0000       SURFACE LEAKAGE =           0.0000

           TOTAL OUT =   758680896.0000             TOTAL OUT =          76.3283

            IN - OUT =        9280.0000              IN - OUT =       2.7924E-03

 PERCENT DISCREPANCY =           0.00     PERCENT DISCREPANCY =           0.00






         TIME SUMMARY AT END OF TIME STEP   15 IN STRESS PERIOD    4
                    SECONDS     MINUTES      HOURS       DAYS        YEARS
                    -----------------------------------------------------------
   TIME STEP LENGTH 1.75200E+05  2920.0      48.667      2.0278     5.55175E-03
 STRESS PERIOD TIME 2.62800E+06  43800.      730.00      30.417     8.32763E-02
         TOTAL TIME 1.05120E+07 1.75200E+05  2920.0      121.67     0.33311    
1
1
                            STRESS PERIOD NO.    5, LENGTH =   2628000.    
                            -----------------------------------------------

                              NUMBER OF TIME STEPS =    15

                               MULTIPLIER FOR DELT =     1.000

                            INITIAL TIME STEP SIZE =   175200.0    

 WELL NO.  LAYER   ROW   COL   STRESS RATE         
 --------------------------------------------------
      1      2      6      4      -3.000    
      2      2      6      5      -3.000    
      3      2      7      4      -3.000    
      4      2      7      5      -3.000    
      5      2      8      4      -3.000    
      6      2      8      5      -3.000    
      7      2      9      4      -3.000    
      8      2      9      5      -3.000    
      9      2     10      4      -3.000    
     10      2     10      5      -3.000    

     10 WELLS

 REUSING NON-PARAMETER GHB CELLS FROM LAST STRESS PERIOD

      2 GHB CELLS

 REUSING STREAM SEGMENT DATA FROM LAST STRESS PERIOD



            AREAL INFILTRATION RATE
 READING ON UNIT   19 WITH FORMAT: (10F4.0)            

            1           2           3           4           5           6           7           8           9          10
 ........................................................................................................................
   1   5.0000E-09  1.0000E-08   0.000       0.000       0.000       0.000       0.000       0.000       0.000       0.000    
   2   1.0000E-08  5.0000E-09  1.0000E-08   0.000       0.000      4.0000E-08  4.0000E-08  2.5000E-08   0.000       0.000    
   3    0.000      2.5000E-08  5.0000E-09  5.0000E-09  4.0000E-08  4.0000E-08  2.5000E-08  2.5000E-08   0.000       0.000    
   4   4.0000E-08  2.5000E-08  5.0000E-09  5.0000E-09  5.0000E-09  5.0000E-09  5.0000E-09  5.0000E-09  1.0000E-08   0.000    
   5   4.0000E-08  2.5000E-08  5.0000E-09  5.0000E-09  5.0000E-09  5.0000E-09  5.0000E-09  5.0000E-09  5.0000E-09  5.0000E-09
   6   4.0000E-08  2.5000E-08  2.5000E-08  1.0000E-08  1.0000E-08  5.0000E-09  5.0000E-09  5.0000E-09  5.0000E-09  2.5000E-08
   7   4.0000E-08  2.5000E-08  2.5000E-08  1.0000E-08  1.0000E-08  5.0000E-09  5.0000E-09  1.0000E-08  1.0000E-08   0.000    
   8    0.000      2.5000E-08  2.5000E-08  1.0000E-08  1.0000E-08  5.0000E-09  5.0000E-09  1.0000E-08  2.5000E-08   0.000    
   9    0.000      2.5000E-08  2.5000E-08  1.0000E-08  1.0000E-08  5.0000E-09  5.0000E-09  1.0000E-08  2.5000E-08   0.000    
  10    0.000      2.5000E-08  2.5000E-08  1.0000E-08  1.0000E-08  5.0000E-09  5.0000E-09  1.0000E-08  2.5000E-08  4.0000E-08
  11    0.000      5.0000E-09  5.0000E-09  5.0000E-09  5.0000E-09  5.0000E-09  5.0000E-09  1.0000E-08  2.5000E-08   0.000    
  12   5.0000E-09  5.0000E-09  5.0000E-09  5.0000E-09  5.0000E-09  5.0000E-09  5.0000E-09  5.0000E-09  1.0000E-08   0.000    
  13   5.0000E-09  5.0000E-09  1.0000E-08  1.0000E-08  1.0000E-08  1.0000E-08  1.0000E-08  5.0000E-09  5.0000E-09   0.000    
  14    0.000      1.0000E-08  2.5000E-08  2.5000E-08  2.5000E-08  2.5000E-08  2.5000E-08  1.0000E-08  5.0000E-09   0.000    
  15    0.000       0.000      4.0000E-08  4.0000E-08  4.0000E-08  4.0000E-08   0.000       0.000       0.000       0.000    

USING ET RATE FROM PREVIOUS STRESS PERIOD. CURRENT PERIOD IS:       5

 USING ET EXTINCTION DEPTH FROM PREVIOUS STRESS PERIOD. CURRENT PERIOD IS:       5

 USING EXTINCTION WATER CONTENT FROM PREVIOUS STRESS PERIOD. CURRENT PERIOD IS:       5




 If any subsequent steady-state stress periods, min. and max. stages for each lake will be read in Record 9a.




 REUSING LAKE CONFIGURATION DATA FROM LAST STRESS PERIOD


 LAKE       PRECIP     EVAP     RUNOFF   WITHDRAW   BOTTOM     AREA
----------------------------------------------------------------------
   1     0.000E+00 4.000E-08 0.000E+00  0.000E+00 1.074E+03 2.500E+07




         C               INTERFACE CONDUCTANCES BETWEEN LAKE AND AQUIFER CELLS
   L     O          (IF TYPE = 6, CONDUCTANCE (L^2/T) IS BETWEEN AQUIFER CELL AND OVERLYING LAKE CELL.)
   A     L  L  T    (IF TYPE = 1 TO 4, CONDUCTANCES ARE PER UNIT SATURATED THICKNESS (L/T).)
   Y  R  U  A  Y
   E  O  M  K  P                        LAKEBED      C O N D U C T A N C E S
   R  W  N  E  E     DELTA Y   DELTA X  LEAKANCE   LAKEBED   AQUIFER  COMBINED
 _______________________________________________________________________________
   1  4  4  1  2    5.00E+03  5.00E+03  5.00E-02  2.50E+02  6.00E-03  6.00E-03
   1  3  5  1  3    5.00E+03  5.00E+03  5.00E-02  2.50E+02  1.20E-03  1.20E-03
   2  4  5  1  6    5.00E+03  5.00E+03  5.00E-02  1.25E+06  9.42E+00  9.42E+00
   1  5  5  1  4    5.00E+03  5.00E+03  5.00E-02  2.50E+02  6.00E-03  6.00E-03
   1  4  6  1  1    5.00E+03  5.00E+03  5.00E-02  2.50E+02  6.00E-03  6.00E-03
      LAKE     INFLOWING STREAM SEGMENT
         1                  9

 MAXIMUM NUMBER OF STREAMS INFLOWING TO A LAKE IS    1

      LAKE     OUTFLOWING STREAM SEGMENT
         1                 10

 MAXIMUM NUMBER OF STREAMS OUTFLOWING FROM A LAKE IS    1

 
 SOLVING FOR HEAD 
                                                   Max.-Head-Change                         Max.-Flux-Residual
  Residual-Control   Outer-Iter.   Inner-Iter.     Column Row Layer    Maximum-Head-Change  Column Row Layer    Maximum-Flux-Residual          L2-NORM 
          0                 1           2             6    2     2       0.2183598730E+00       6    2    2         0.2849941118E+01      0.7114107355E+01
          0                 2           2             6    2     2       0.1442642014E-01       6    2    2         0.1881706100E+00      0.4556817314E+00
          0                 3           1             6    2     2       0.9545849387E-03       6    2    2         0.1244451756E-01      0.2809820935E-01

    ------------------------------------------------
       NWT REQUIRED            3 OUTER ITERATIONS 
       AND A TOTAL OF          5 INNER ITERATIONS.
    ------------------------------------------------

 NO OUTPUT CONTROL FOR STRESS PERIOD    5   TIME STEP    1
 ..........LAKE  1 IS DRY..........
 
 SOLVING FOR HEAD 
                                                   Max.-Head-Change                         Max.-Flux-Residual
  Residual-Control   Outer-Iter.   Inner-Iter.     Column Row Layer    Maximum-Head-Change  Column Row Layer    Maximum-Flux-Residual          L2-NORM 
          0                 1           2             6    2     2       0.2170622520E+00       6    2    2         0.2833516418E+01      0.6879970212E+01
          0                 2           2             6    2     2       0.1433413467E-01       6    2    2         0.1870011074E+00      0.4725459432E+00
          0                 3           1             6    2     2       0.9480413027E-03       6    2    2         0.1236148746E-01      0.2915547072E-01

    ------------------------------------------------
       NWT REQUIRED            3 OUTER ITERATIONS 
       AND A TOTAL OF          5 INNER ITERATIONS.
    ------------------------------------------------

 NO OUTPUT CONTROL FOR STRESS PERIOD    5   TIME STEP    2
 ..........LAKE  1 IS DRY..........
 
 SOLVING FOR HEAD 
                                                   Max.-Head-Change                         Max.-Flux-Residual
  Residual-Control   Outer-Iter.   Inner-Iter.     Column Row Layer    Maximum-Head-Change  Column Row Layer    Maximum-Flux-Residual          L2-NORM 
          0                 1           2             6    2     2       0.2148212180E+00       6    2    2         0.2816593627E+01      0.8106650022E+01
          0                 2           2             6    2     2       0.1401888584E-01       6    2    2         0.1838387272E+00      0.5455967572E+00
          0                 3           1             6    2     2       0.9144016635E-03       6    2    2         0.1199460348E-01      0.3020419668E-01

    ------------------------------------------------
       NWT REQUIRED            3 OUTER ITERATIONS 
       AND A TOTAL OF          5 INNER ITERATIONS.
    ------------------------------------------------

 NO OUTPUT CONTROL FOR STRESS PERIOD    5   TIME STEP    3
 ..........LAKE  1 IS DRY..........
 
 SOLVING FOR HEAD 
                                                   Max.-Head-Change                         Max.-Flux-Residual
  Residual-Control   Outer-Iter.   Inner-Iter.     Column Row Layer    Maximum-Head-Change  Column Row Layer    Maximum-Flux-Residual          L2-NORM 
          0                 1           2             6    2     2       0.2115683563E+00       6    2    2         0.2785178181E+01      0.8460552618E+01
          0                 2           2             6    2     2       0.1381031621E-01       7   10    2        -0.2080620627E+00      0.6050045817E+00
          0                 3           1             6    2     2       0.9116165925E-03       7   10    2         0.1243789518E-01      0.3418128637E-01

    ------------------------------------------------
       NWT REQUIRED            3 OUTER ITERATIONS 
       AND A TOTAL OF          5 INNER ITERATIONS.
    ------------------------------------------------

 NO OUTPUT CONTROL FOR STRESS PERIOD    5   TIME STEP    4
 ..........LAKE  1 IS DRY..........
 
 SOLVING FOR HEAD 
                                                   Max.-Head-Change                         Max.-Flux-Residual
  Residual-Control   Outer-Iter.   Inner-Iter.     Column Row Layer    Maximum-Head-Change  Column Row Layer    Maximum-Flux-Residual          L2-NORM 
          0                 1           2             6    2     2       0.2099267497E+00       6    2    2         0.2743206831E+01      0.9214907766E+01
          0                 2           2             6    2     2       0.1383015060E-01       7   10    2        -0.1923138965E+00      0.6515654190E+00
          0                 3           1             6    2     2       0.9127054054E-03       6    2    2         0.1191489484E-01      0.3831130712E-01

    ------------------------------------------------
       NWT REQUIRED            3 OUTER ITERATIONS 
       AND A TOTAL OF          5 INNER ITERATIONS.
    ------------------------------------------------

 NO OUTPUT CONTROL FOR STRESS PERIOD    5   TIME STEP    5
 ..........LAKE  1 IS DRY..........
 
 SOLVING FOR HEAD 
                                                   Max.-Head-Change                         Max.-Flux-Residual
  Residual-Control   Outer-Iter.   Inner-Iter.     Column Row Layer    Maximum-Head-Change  Column Row Layer    Maximum-Flux-Residual          L2-NORM 
          0                 1           2             6    2     2       0.2083562107E+00       6    2    2         0.2723572279E+01      0.9623396961E+01
          0                 2           2             6    2     2       0.1372061685E-01       6    2    2         0.1791037980E+00      0.6666304056E+00
          0                 3           1             6    2     2       0.9055197556E-03       6    2    2         0.1182090770E-01      0.4016681881E-01

    ------------------------------------------------
       NWT REQUIRED            3 OUTER ITERATIONS 
       AND A TOTAL OF          5 INNER ITERATIONS.
    ------------------------------------------------

 NO OUTPUT CONTROL FOR STRESS PERIOD    5   TIME STEP    6
 ..........LAKE  1 IS DRY..........
 
 SOLVING FOR HEAD 
                                                   Max.-Head-Change                         Max.-Flux-Residual
  Residual-Control   Outer-Iter.   Inner-Iter.     Column Row Layer    Maximum-Head-Change  Column Row Layer    Maximum-Flux-Residual          L2-NORM 
          0                 1           2             1    7     2       0.2068686415E+00       6    2    2         0.2703126827E+01      0.9166410039E+01
          0                 2           2             5   15     2       0.1413703391E-01       5   15    2         0.1846198812E+00      0.6085209629E+00
          0                 3           1             5   15     2       0.9320410763E-03       5   15    2         0.1217281391E-01      0.3774340154E-01

    ------------------------------------------------
       NWT REQUIRED            3 OUTER ITERATIONS 
       AND A TOTAL OF          5 INNER ITERATIONS.
    ------------------------------------------------

 NO OUTPUT CONTROL FOR STRESS PERIOD    5   TIME STEP    7
 ..........LAKE  1 IS DRY..........
 
 SOLVING FOR HEAD 
                                                   Max.-Head-Change                         Max.-Flux-Residual
  Residual-Control   Outer-Iter.   Inner-Iter.     Column Row Layer    Maximum-Head-Change  Column Row Layer    Maximum-Flux-Residual          L2-NORM 
          0                 1           2             4   15     2       0.2064744227E+00       4   15    2         0.2691680929E+01      0.9568121299E+01
          0                 2           2             4   15     2       0.1365770006E-01       4   15    2         0.1782123835E+00      0.6185498318E+00
          0                 3           1             1    6     2       0.9263872298E-03       1    6    2         0.1210138548E-01      0.3876239268E-01

    ------------------------------------------------
       NWT REQUIRED            3 OUTER ITERATIONS 
       AND A TOTAL OF          5 INNER ITERATIONS.
    ------------------------------------------------

 NO OUTPUT CONTROL FOR STRESS PERIOD    5   TIME STEP    8
 ..........LAKE  1 IS DRY..........
 
 SOLVING FOR HEAD 
                                                   Max.-Head-Change                         Max.-Flux-Residual
  Residual-Control   Outer-Iter.   Inner-Iter.     Column Row Layer    Maximum-Head-Change  Column Row Layer    Maximum-Flux-Residual          L2-NORM 
          0                 1           2            10   10     2       0.2072372448E+00      10   10    2         0.2700149449E+01      0.9731857575E+01
          0                 2           2            10   10     2       0.1435236579E-01      10   10    2         0.1870392252E+00      0.6279357787E+00
          0                 3           1            10   10     2       0.9972249963E-03      10   10    2         0.1299522825E-01      0.3959839708E-01

    ------------------------------------------------
       NWT REQUIRED            3 OUTER ITERATIONS 
       AND A TOTAL OF          5 INNER ITERATIONS.
    ------------------------------------------------

 OUTPUT CONTROL FOR STRESS PERIOD    5   TIME STEP    9
    PRINT BUDGET
    PRINT HEAD FOR ALL LAYERS
    SAVE HEAD FOR ALL LAYERS
    SAVE BUDGET

            WELLS   PERIOD    5   STEP   9
 WELL      1   LAYER   2   ROW     6   COL     4   RATE    -3.00000    
 WELL      2   LAYER   2   ROW     6   COL     5   RATE    -3.00000    
 WELL      3   LAYER   2   ROW     7   COL     4   RATE    -3.00000    
 WELL      4   LAYER   2   ROW     7   COL     5   RATE    -3.00000    
 WELL      5   LAYER   2   ROW     8   COL     4   RATE    -3.00000    
 WELL      6   LAYER   2   ROW     8   COL     5   RATE    -3.00000    
 WELL      7   LAYER   2   ROW     9   COL     4   RATE    -3.00000    
 WELL      8   LAYER   2   ROW     9   COL     5   RATE    -3.00000    
 WELL      9   LAYER   2   ROW    10   COL     4   RATE    -3.00000    
 WELL     10   LAYER   2   ROW    10   COL     5   RATE    -3.00000    

  HEAD DEP BOUNDS   PERIOD    5   STEP     9
 BOUNDARY      1   LAYER   2   ROW    13   COL     1   RATE   -0.291958    
 BOUNDARY      2   LAYER   2   ROW    14   COL     9   RATE    0.213659    



 STREAM LISTING     PERIOD      5   STEP        9

 LAYER ROW COL. STREAM  RCH.  FLOW INTO     FLOW TO   FLOW OUT OF   OVRLND.     DIRECT     STREAM       STREAM     STREAM     STREAM   STREAMBED  STREAMBED
                SEG.NO.  NO.  STRM. RCH.    AQUIFER    STRM. RCH.    RUNOFF     PRECIP       ET          HEAD       DEPTH      WIDTH   CONDCTNC.   GRADIENT

   2    1    1     1     1    2.9000E+01  2.1063E+00   2.6894E+01  0.000E+00  0.000E+00  0.000E+00  1.09427E+03  1.222E+00  1.363E+01  6.132E-01  1.145E+00
   2    2    2     1     2    2.6894E+01  3.8210E+00   2.3073E+01  0.000E+00  0.000E+00  0.000E+00  1.08924E+03  1.180E+00  1.306E+01  9.141E-01  1.393E+00
   2    3    3     1     3    2.3073E+01  3.0560E+00   2.0017E+01  0.000E+00  0.000E+00  0.000E+00  1.08354E+03  1.126E+00  1.234E+01  7.407E-01  1.375E+00
   2    3    4     1     4    2.0017E+01  2.6274E+00   1.7389E+01  0.000E+00  0.000E+00  0.000E+00  1.07849E+03  1.079E+00  1.161E+01  6.442E-01  1.360E+00
   2    4    5     2     1    7.3893E+00  2.7408E+00   4.6485E+00  0.000E+00  0.000E+00  0.000E+00  1.07245E+03  5.139E-01  1.200E+01  7.800E-01  1.171E+00
   2    5    6     2     2    4.6485E+00  2.0278E+00   2.6207E+00  0.000E+00  0.000E+00  0.000E+00  1.06689E+03  3.797E-01  1.200E+01  6.000E-01  1.127E+00
   2    6    6     2     3    2.6207E+00  1.9418E+00   6.7884E-01  0.000E+00  0.000E+00  0.000E+00  1.06203E+03  2.364E-01  1.200E+01  6.000E-01  1.079E+00
   2    7    6     2     4    6.7884E-01  6.7884E-01   0.0000E+00  0.000E+00  0.000E+00  0.000E+00  1.05711E+03  3.122E-02  1.200E+01  6.000E-01  1.010E+00
   2    8    6     2     5    0.0000E+00  0.0000E+00   0.0000E+00  0.000E+00  0.000E+00  0.000E+00  1.05236E+03  0.000E+00  1.200E+01  6.000E-01  1.000E+00
   2    3    5     3     1    1.0000E+01  2.8252E+00   7.1748E+00  0.000E+00  0.000E+00  0.000E+00  1.07555E+03  1.909E+00  9.636E+00  7.227E-01  1.955E+00
   2    3    6     3     2    7.1748E+00  2.4905E+00   4.6843E+00  0.000E+00  0.000E+00  0.000E+00  1.07264E+03  1.727E+00  8.909E+00  6.682E-01  1.864E+00
   2    3    7     3     3    4.6843E+00  1.9718E+00   2.7125E+00  0.000E+00  0.000E+00  0.000E+00  1.06987E+03  1.555E+00  8.218E+00  5.547E-01  1.777E+00
   2    4    8     3     4    2.7125E+00  2.2567E+00   4.5579E-01  0.000E+00  0.000E+00  0.000E+00  1.06682E+03  1.364E+00  7.455E+00  6.709E-01  1.682E+00
   2    5    8     3     5    4.5579E-01  4.5579E-01   0.0000E+00  0.000E+00  0.000E+00  0.000E+00  1.06362E+03  0.000E+00  6.655E+00  4.991E-01  1.582E+00
   2    6    8     3     6    0.0000E+00  0.0000E+00   0.0000E+00  0.000E+00  0.000E+00  0.000E+00  1.06055E+03  0.000E+00  6.145E+00  1.844E-01  1.000E+00
   2    5   10     4     1    1.0000E+01  9.0525E-01   9.0947E+00  0.000E+00  0.000E+00  0.000E+00  1.07835E+03  6.210E-01  1.000E+01  2.500E-01  1.207E+00
   2    5    9     4     2    9.0947E+00  1.7835E+00   7.3113E+00  0.000E+00  0.000E+00  0.000E+00  1.07148E+03  5.670E-01  1.000E+01  5.000E-01  1.189E+00
   2    6    8     4     3    7.3113E+00  1.2257E+00   6.0855E+00  0.000E+00  0.000E+00  0.000E+00  1.06368E+03  5.021E-01  1.000E+01  3.500E-01  1.167E+00
   2    6    8     5     1    6.0855E+00  1.4716E+00   4.6139E+00  0.000E+00  0.000E+00  0.000E+00  1.05854E+03  5.396E-01  1.039E+01  4.158E-01  1.180E+00
   2    7    7     5     2    4.6139E+00  1.4897E+00   3.1242E+00  0.000E+00  0.000E+00  0.000E+00  1.05398E+03  4.817E-01  8.557E+00  4.279E-01  1.161E+00
   2    8    7     5     3    3.1242E+00  8.2855E-01   2.2957E+00  0.000E+00  0.000E+00  0.000E+00  1.04968E+03  4.253E-01  6.911E+00  2.419E-01  1.142E+00
   2    8    6     5     4    2.2957E+00  4.9455E-01   1.8011E+00  0.000E+00  0.000E+00  0.000E+00  1.04664E+03  3.856E-01  5.843E+00  1.461E-01  1.129E+00
   2    9    6     6     1    1.8011E+00  1.8011E+00   0.0000E+00  0.000E+00  0.000E+00  0.000E+00  1.04278E+03  5.669E-02  1.200E+01  6.000E-01  1.019E+00
   2   10    7     6     2    0.0000E+00  0.0000E+00   0.0000E+00  0.000E+00  0.000E+00  0.000E+00  1.03818E+03  0.000E+00  1.200E+01  6.000E-01  1.000E+00
   2   11    7     6     3    0.0000E+00  0.0000E+00   0.0000E+00  0.000E+00  0.000E+00  0.000E+00  1.03364E+03  0.000E+00  1.200E+01  6.000E-01  1.000E+00
   2   12    7     6     4    0.0000E+00  0.0000E+00   0.0000E+00  0.000E+00  0.000E+00  0.000E+00  1.02909E+03  0.000E+00  1.200E+01  6.000E-01  4.918E-01
   2   13    7     6     5    0.0000E+00 -7.5301E-01   7.5301E-01  0.000E+00  0.000E+00  0.000E+00  1.02601E+03  9.850E-02  1.200E+01  2.400E-01 -1.046E+00
   2   14    9     7     1    1.5000E+02  2.7247E+00   1.4728E+02  0.000E+00  0.000E+00  0.000E+00  1.03986E+03  2.284E+00  5.528E+01  5.591E+00  1.624E-01
   2   13    8     7     2    1.4728E+02  3.6784E+00   1.4360E+02  0.000E+00  0.000E+00  0.000E+00  1.03477E+03  2.267E+00  5.520E+01  6.141E+00  1.997E-01
   2   13    7     7     3    1.4360E+02  2.9173E+00   1.4068E+02  0.000E+00  0.000E+00  0.000E+00  1.02967E+03  2.249E+00  5.512E+01  5.574E+00  1.745E-01
   2   13    6     8     1    1.4143E+02  1.0507E+00   1.4038E+02  0.000E+00  0.000E+00  0.000E+00  1.02463E+03  2.752E+00  3.990E+01  4.066E+00  8.614E-02
   2   13    5     8     2    1.4038E+02 -2.1024E+00   1.4248E+02  0.000E+00  0.000E+00  0.000E+00  1.01838E+03  2.755E+00  3.995E+01  4.071E+00 -1.721E-01
   2   13    4     8     3    1.4248E+02 -5.1233E+00   1.4761E+02  0.000E+00  0.000E+00  0.000E+00  1.01216E+03  2.782E+00  4.033E+01  4.110E+00 -4.155E-01
   2   13    3     8     4    1.4761E+02 -5.8489E+00   1.5346E+02  0.000E+00  0.000E+00  0.000E+00  1.00595E+03  2.821E+00  4.090E+01  4.168E+00 -4.678E-01
   2   13    2     8     5    1.5346E+02 -3.7306E+00   1.5719E+02  0.000E+00  0.000E+00  0.000E+00  9.99729E+02  2.854E+00  4.138E+01  4.217E+00 -2.949E-01
   2   13    1     8     6    1.5719E+02 -2.3786E+00   1.5957E+02  0.000E+00  0.000E+00  0.000E+00  9.94750E+02  2.875E+00  4.169E+01  2.549E+00 -3.111E-01
   2    4    5     9     1    0.0000E+00  0.0000E+00   0.0000E+00  0.000E+00  0.000E+00  0.000E+00  1.06000E+03  0.000E+00  2.000E+01  2.000E-03  1.000E+00
   2    4    5    10     1    0.0000E+00  0.0000E+00   0.0000E+00  0.000E+00  0.000E+00  0.000E+00  1.08000E+03  0.000E+00  2.000E+01  2.000E-03  1.000E+00



 ..........LAKE  1 IS DRY..........

     SECTIONS OF THE LAKE BOTTOM HAVE BECOME DRY.  THE DRYSECTIONS
     LIE ABOVE THE FOLLOWING  1 AQUIFER CELLS (LAYER,ROW,COLUMN):
     (  2,  4,  5)  (

 PERIOD     5     TIME STEP     9     TIME STEP LENGTH  1.7520E+05
 PERIOD TIME  1.5768E+06     TOTAL SIMULATION TIME  1.2089E+07


                 HYDROLOGIC BUDGET SUMMARIES FOR SIMULATED LAKES
     (ALL FLUID FLUXES ARE VOLUMES ADDED TO THE LAKE DURING PRESENT TIME STEP)
     ----------------------------------------------------------------------------------------
 LAKE    STAGE         VOLUME     VOL. CHANGE      PRECIP     EVAPORATION    SPECIFIED RUNOFF     COMPUTED RUNOFF    TOTAL RUNOFF
   1  1.074500E+03  0.000000E+00  0.000000E+00  0.000000E+00  0.000000E+00   0.000000E+00          0.000000E+00      0.000000E+00

            GROUND WATER            SURFACE WATER        WATER          UZF INFIL.
 LAKE    INFLOW     OUTFLOW      INFLOW     OUTFLOW       USE        FROM LAKE
   1  0.0000E+00  0.0000E+00  0.0000E+00  0.0000E+00  0.0000E+00       0.0000E+00

      CONNECTED LAKE   TIME-STEP         STAGE-CHANGE          PERCENT
 LAKE    INFLUX      SURFACE AREA   TIME STEP  CUMULATIVE    DISCREPANCY
   1   0.0000E+00     0.0000E+00   0.0000E+00  0.0000E+00       0.000
 --------------------------------------------------------------------------------



            CUMULATIVE HYDROLOGIC BUDGET SUMMARIES FOR SIMULATED LAKES
     (ALL FLUID FLUXES ARE SUMS OF VOLUMES ADDED TO THE LAKE SINCE INITIAL TIME)
     ---------------------------------------------------------------------------
 LAKE       PRECIP       EVAP     SPECIFIED RUNOFF   COMPUTED RUNOFF   TOTAL RUNOFF
   1     0.0000E+00  0.0000E+00       0.0000E+00       0.0000E+00       0.0000E+00

            GROUND WATER            SURFACE WATER       UZF INFIL.
 LAKE    INFLOW     OUTFLOW      INFLOW     OUTFLOW     FROM LAKE
   1  0.0000E+00  0.0000E+00  0.0000E+00  0.0000E+00    0.0000E+00

         WATER    CONNECTED LAKE   CHANGE       PERCENT
 LAKE     USE         INFLUX       IN VOL.    DISCREPANCY
   1   0.0000E+00   0.0000E+00   0.0000E+00      0.000
 --------------------------------------------------------------------------------

 UBDSV3 SAVING "           GW ET" ON UNIT  61 AT TIME STEP     9, STRESS PERIOD   5
 UBDSV3 SAVING "    UZF RECHARGE" ON UNIT  61 AT TIME STEP     9, STRESS PERIOD   5
 UBDSV3 SAVING " SURFACE LEAKAGE" ON UNIT  61 AT TIME STEP     9, STRESS PERIOD   5
 UBDSV3 SAVING "       HORT+DUNN" ON UNIT  61 AT TIME STEP     9, STRESS PERIOD   5
 UBDSV3 SAVING "  STORAGE CHANGE" ON UNIT  61 AT TIME STEP     9, STRESS PERIOD   5


UNSATURATED ZONE PACKAGE VOLUMETRIC BUDGET FOR  TIME STEP     9 STRESS PERIOD    5
  ------------------------------------------------------------------------------



     CUMULATIVE VOLUMES      L**3       RATES FOR THIS TIME STEP      L**3/T
     ------------------                 ------------------------

           IN:                                      IN:
           ---                                      ---
        INFILTRATION =   912691260.0000          INFILTRATION =          42.2500

          OUT:                                     OUT:
          ----                                     ----
              UZF ET =   831396708.8301                UZF ET =          82.6879
        UZF RECHARGE =   313071971.7814          UZF RECHARGE =          50.0143

            IN - OUT =  -231777420.6115              IN - OUT =         -90.4522

          STORAGE:                                 STORAGE:
          --------                                 --------
      STORAGE CHANGE =  -231648240.6329        STORAGE CHANGE =         -90.4406

 PERCENT DISCREPANCY IS DIFFERENCE BETWEEN IN-OUT MINUS CHANGE IN STORAGE
 DIVIDED BY THE AVERAGE OF IN AND OUT TIMES 100

 PERCENT DISCREPANCY =          -0.00     PERCENT DISCREPANCY =          -0.01






1
              HEAD IN LAYER   1 AT END OF TIME STEP     9 IN STRESS PERIOD    5
  -----------------------------------------------------------------------------

           1       2       3       4       5       6       7       8       9      10
 ...................................................................................
   1  6999.00 6999.00 6999.00 6999.00 6999.00 6999.00 6999.00 6999.00 6999.00 6999.00
   2  6999.00 6999.00 6999.00 6999.00 6999.00 6999.00 6999.00 6999.00 6999.00 6999.00
   3  6999.00 6999.00 6999.00 6999.00 6999.00 6999.00 6999.00 6999.00 6999.00 6999.00
   4  6999.00 6999.00 6999.00 6999.00 6999.00 6999.00 6999.00 6999.00 6999.00 6999.00
   5  6999.00 6999.00 6999.00 6999.00 6999.00 6999.00 6999.00 6999.00 6999.00 6999.00
   6  6999.00 6999.00 6999.00 6999.00 6999.00 6999.00 6999.00 6999.00 6999.00 6999.00
   7  6999.00 6999.00 6999.00 6999.00 6999.00 6999.00 6999.00 6999.00 6999.00 6999.00
   8  6999.00 6999.00 6999.00 6999.00 6999.00 6999.00 6999.00 6999.00 6999.00 6999.00
   9  6999.00 6999.00 6999.00 6999.00 6999.00 6999.00 6999.00 6999.00 6999.00 6999.00
  10  6999.00 6999.00 6999.00 6999.00 6999.00 6999.00 6999.00 6999.00 6999.00 6999.00
  11  6999.00 6999.00 6999.00 6999.00 6999.00 6999.00 6999.00 6999.00 6999.00 6999.00
  12  6999.00 6999.00 6999.00 6999.00 6999.00 6999.00 6999.00 6999.00 6999.00 6999.00
  13  6999.00 6999.00 6999.00 6999.00 6999.00 6999.00 6999.00 6999.00 6999.00 6999.00
  14  6999.00 6999.00 6999.00 6999.00 6999.00 6999.00 6999.00 6999.00 6999.00 6999.00
  15  6999.00 6999.00 6999.00 6999.00 6999.00 6999.00 6999.00 6999.00 6999.00 6999.00
1
              HEAD IN LAYER   2 AT END OF TIME STEP     9 IN STRESS PERIOD    5
  -----------------------------------------------------------------------------

           1       2       3       4       5       6       7       8       9      10
 ...................................................................................
   1  1090.84 1085.46 6999.00 6999.00 6999.00 6999.00 6999.00 6999.00 6999.00 6999.00
   2  1085.71 1079.68 1072.75 6999.00 6999.00 1066.40 1066.25 1063.46 6999.00 6999.00
   3  6999.00 1069.41 1065.69 1062.00 1063.90 1065.04 1064.94 1062.74 6999.00 6999.00
   4  1059.59 1060.24 1058.69 1055.63 1054.61 1053.78 1055.17 1059.18 1058.02 6999.00
   5  1055.24 1053.38 1051.66 1049.89 1049.60 1049.95 1049.92 1051.68 1055.15 1057.38
   6  1051.13 1048.17 1046.04 1044.39 1044.55 1046.23 1047.27 1049.44 1052.19 1056.51
   7  1047.93 1043.34 1041.14 1039.73 1040.25 1042.31 1044.08 1046.30 1049.00 6999.00
   8  6999.00 1038.12 1036.55 1035.44 1036.07 1038.17 1039.75 1042.82 1044.48 6999.00
   9  6999.00 1032.44 1031.64 1031.00 1031.84 1034.05 1035.12 1037.16 1039.78 6999.00
  10  6999.00 1026.70 1026.67 1026.84 1028.03 1030.12 1031.37 1033.07 1035.88 1037.05
  11  6999.00 1019.62 1020.48 1023.15 1025.08 1027.25 1028.94 1030.98 1034.24 6999.00
  12  1003.07 1009.51 1013.71 1018.14 1021.67 1025.06 1027.62 1030.76 1034.59 6999.00
  13   995.68 1000.61 1007.35 1013.40 1018.90 1024.37 1029.15 1034.17 1036.72 6999.00
  14  6999.00 1006.69 1010.25 1015.04 1020.05 1025.28 1030.55 1035.17 1039.38 6999.00
  15  6999.00 6999.00 1015.07 1018.10 1022.08 1025.57 6999.00 6999.00 6999.00 6999.00

 HEAD WILL BE SAVED ON UNIT   58 AT END OF TIME STEP    9, STRESS PERIOD    5
1
  VOLUMETRIC BUDGET FOR ENTIRE MODEL AT END OF TIME STEP    9, STRESS PERIOD   5
  ------------------------------------------------------------------------------

     CUMULATIVE VOLUMES      L**3       RATES FOR THIS TIME STEP      L**3/T
     ------------------                 ------------------------

           IN:                                      IN:
           ---                                      ---
             STORAGE =    35109820.0000               STORAGE =          14.0829
       CONSTANT HEAD =           0.0000         CONSTANT HEAD =           0.0000
               WELLS =           0.0000                 WELLS =           0.0000
     HEAD DEP BOUNDS =     2596430.7500       HEAD DEP BOUNDS =           0.2137
      STREAM LEAKAGE =   571383488.0000        STREAM LEAKAGE =          49.3710
       LAKE  SEEPAGE =           0.0000         LAKE  SEEPAGE =           0.0000
        UZF RECHARGE =   313071936.0000          UZF RECHARGE =          50.0143
               GW ET =           0.0000                 GW ET =           0.0000
     SURFACE LEAKAGE =           0.0000       SURFACE LEAKAGE =           0.0000

            TOTAL IN =   922161664.0000              TOTAL IN =         113.6819

          OUT:                                     OUT:
          ----                                     ----
             STORAGE =   333459776.0000               STORAGE =          51.1510
       CONSTANT HEAD =           0.0000         CONSTANT HEAD =           0.0000
               WELLS =   204984000.0000                 WELLS =          30.0000
     HEAD DEP BOUNDS =     3502871.7500       HEAD DEP BOUNDS =           0.2920
      STREAM LEAKAGE =   229458928.0000        STREAM LEAKAGE =          19.9369
       LAKE  SEEPAGE =           0.0000         LAKE  SEEPAGE =           0.0000
        UZF RECHARGE =           0.0000          UZF RECHARGE =           0.0000
               GW ET =   150737920.0000                 GW ET =          12.2933
     SURFACE LEAKAGE =           0.0000       SURFACE LEAKAGE =           0.0000

           TOTAL OUT =   922143488.0000             TOTAL OUT =         113.6732

            IN - OUT =       18176.0000              IN - OUT =       8.6746E-03

 PERCENT DISCREPANCY =           0.00     PERCENT DISCREPANCY =           0.01






         TIME SUMMARY AT END OF TIME STEP    9 IN STRESS PERIOD    5
                    SECONDS     MINUTES      HOURS       DAYS        YEARS
                    -----------------------------------------------------------
   TIME STEP LENGTH 1.75200E+05  2920.0      48.667      2.0278     5.55175E-03
 STRESS PERIOD TIME 1.57680E+06  26280.      438.00      18.250     4.99658E-02
         TOTAL TIME 1.20888E+07 2.01480E+05  3358.0      139.92     0.38307    
1
 
 SOLVING FOR HEAD 
                                                   Max.-Head-Change                         Max.-Flux-Residual
  Residual-Control   Outer-Iter.   Inner-Iter.     Column Row Layer    Maximum-Head-Change  Column Row Layer    Maximum-Flux-Residual          L2-NORM 
          0                 1           2             2    2     2       0.7977282983E+00       2    2    2         0.2151485453E+02      0.5482669633E+02
          0                 2           2             2    2     2      -0.7620289759E-01       4   13    2        -0.2381194756E+01      0.4587589225E+01
          0                 3           2             2    2     2       0.4349247203E-02       2    2    2         0.1265278033E+00      0.2122488668E+00
          0                 4           1             2    2     2      -0.8732555276E-04       2    2    2        -0.2636627668E-02      0.5182436135E-02

    ------------------------------------------------
       NWT REQUIRED            4 OUTER ITERATIONS 
       AND A TOTAL OF          7 INNER ITERATIONS.
    ------------------------------------------------

 OUTPUT CONTROL FOR STRESS PERIOD    5   TIME STEP   10
    PRINT BUDGET
    SAVE BUDGET

            WELLS   PERIOD    5   STEP  10
 WELL      1   LAYER   2   ROW     6   COL     4   RATE    -3.00000    
 WELL      2   LAYER   2   ROW     6   COL     5   RATE    -3.00000    
 WELL      3   LAYER   2   ROW     7   COL     4   RATE    -3.00000    
 WELL      4   LAYER   2   ROW     7   COL     5   RATE    -3.00000    
 WELL      5   LAYER   2   ROW     8   COL     4   RATE    -3.00000    
 WELL      6   LAYER   2   ROW     8   COL     5   RATE    -3.00000    
 WELL      7   LAYER   2   ROW     9   COL     4   RATE    -3.00000    
 WELL      8   LAYER   2   ROW     9   COL     5   RATE    -3.00000    
 WELL      9   LAYER   2   ROW    10   COL     4   RATE    -3.00000    
 WELL     10   LAYER   2   ROW    10   COL     5   RATE    -3.00000    

  HEAD DEP BOUNDS   PERIOD    5   STEP    10
 BOUNDARY      1   LAYER   2   ROW    13   COL     1   RATE   -0.302177    
 BOUNDARY      2   LAYER   2   ROW    14   COL     9   RATE    0.213532    



 STREAM LISTING     PERIOD      5   STEP       10

 LAYER ROW COL. STREAM  RCH.  FLOW INTO     FLOW TO   FLOW OUT OF   OVRLND.     DIRECT     STREAM       STREAM     STREAM     STREAM   STREAMBED  STREAMBED
                SEG.NO.  NO.  STRM. RCH.    AQUIFER    STRM. RCH.    RUNOFF     PRECIP       ET          HEAD       DEPTH      WIDTH   CONDCTNC.   GRADIENT

   2    1    1     1     1    9.3895E+02  1.3629E+01   9.2533E+02  0.000E+00  0.000E+00  0.000E+00  1.09718E+03  4.135E+00  5.093E+01  2.292E+00  1.982E+00
   2    2    2     1     2    9.2533E+02  2.5125E+01   9.0020E+02  0.000E+00  0.000E+00  0.000E+00  1.09216E+03  4.103E+00  5.053E+01  3.537E+00  2.368E+00
   2    3    3     1     3    9.0020E+02  2.1211E+01   8.7899E+02  0.000E+00  0.000E+00  0.000E+00  1.08648E+03  4.064E+00  5.005E+01  3.003E+00  2.355E+00
   2    3    4     1     4    8.7899E+02  1.9355E+01   8.5964E+02  0.000E+00  0.000E+00  0.000E+00  1.08144E+03  4.029E+00  4.961E+01  2.754E+00  2.343E+00
   2    4    5     2     1    8.4964E+02  1.0124E+01   8.3951E+02  0.000E+00  0.000E+00  0.000E+00  1.08191E+03  9.980E+00  1.200E+01  7.800E-01  4.327E+00
   2    5    6     2     2    8.3951E+02  7.7498E+00   8.3176E+02  0.000E+00  0.000E+00  0.000E+00  1.07643E+03  9.916E+00  1.200E+01  6.000E-01  4.305E+00
   2    6    6     2     3    8.3176E+02  7.7168E+00   8.2404E+02  0.000E+00  0.000E+00  0.000E+00  1.07165E+03  9.861E+00  1.200E+01  6.000E-01  4.287E+00
   2    7    6     2     4    8.2404E+02  7.6837E+00   8.1636E+02  0.000E+00  0.000E+00  0.000E+00  1.06688E+03  9.806E+00  1.200E+01  6.000E-01  4.269E+00
   2    8    6     2     5    8.1636E+02  7.6506E+00   8.0871E+02  0.000E+00  0.000E+00  0.000E+00  1.06211E+03  9.751E+00  1.200E+01  6.000E-01  4.250E+00
   2    3    5     3     1    1.0000E+01  2.8252E+00   7.1748E+00  0.000E+00  0.000E+00  0.000E+00  1.07555E+03  1.909E+00  9.636E+00  7.227E-01  1.955E+00
   2    3    6     3     2    7.1748E+00  2.4905E+00   4.6843E+00  0.000E+00  0.000E+00  0.000E+00  1.07264E+03  1.727E+00  8.909E+00  6.682E-01  1.864E+00
   2    3    7     3     3    4.6843E+00  1.9718E+00   2.7125E+00  0.000E+00  0.000E+00  0.000E+00  1.06987E+03  1.555E+00  8.218E+00  5.547E-01  1.777E+00
   2    4    8     3     4    2.7125E+00  2.2567E+00   4.5579E-01  0.000E+00  0.000E+00  0.000E+00  1.06682E+03  1.364E+00  7.455E+00  6.709E-01  1.682E+00
   2    5    8     3     5    4.5579E-01  4.5579E-01   0.0000E+00  0.000E+00  0.000E+00  0.000E+00  1.06362E+03  0.000E+00  6.655E+00  4.991E-01  1.582E+00
   2    6    8     3     6    0.0000E+00  0.0000E+00   0.0000E+00  0.000E+00  0.000E+00  0.000E+00  1.06055E+03  0.000E+00  6.145E+00  1.844E-01  1.000E+00
   2    5   10     4     1    1.0000E+01  9.0525E-01   9.0947E+00  0.000E+00  0.000E+00  0.000E+00  1.07835E+03  6.210E-01  1.000E+01  2.500E-01  1.207E+00
   2    5    9     4     2    9.0947E+00  1.7835E+00   7.3113E+00  0.000E+00  0.000E+00  0.000E+00  1.07148E+03  5.670E-01  1.000E+01  5.000E-01  1.189E+00
   2    6    8     4     3    7.3113E+00  1.2257E+00   6.0855E+00  0.000E+00  0.000E+00  0.000E+00  1.06368E+03  5.021E-01  1.000E+01  3.500E-01  1.167E+00
   2    6    8     5     1    6.0855E+00  1.4716E+00   4.6139E+00  0.000E+00  0.000E+00  0.000E+00  1.05854E+03  5.396E-01  1.039E+01  4.158E-01  1.180E+00
   2    7    7     5     2    4.6139E+00  1.4897E+00   3.1242E+00  0.000E+00  0.000E+00  0.000E+00  1.05398E+03  4.817E-01  8.557E+00  4.279E-01  1.161E+00
   2    8    7     5     3    3.1242E+00  8.2855E-01   2.2957E+00  0.000E+00  0.000E+00  0.000E+00  1.04968E+03  4.253E-01  6.911E+00  2.419E-01  1.142E+00
   2    8    6     5     4    2.2957E+00  4.9455E-01   1.8011E+00  0.000E+00  0.000E+00  0.000E+00  1.04664E+03  3.856E-01  5.843E+00  1.461E-01  1.129E+00
   2    9    6     6     1    8.1051E+02  7.6903E+00   8.0282E+02  0.000E+00  0.000E+00  0.000E+00  1.05254E+03  9.817E+00  1.200E+01  6.000E-01  4.272E+00
   2   10    7     6     2    8.0282E+02  7.6566E+00   7.9516E+02  0.000E+00  0.000E+00  0.000E+00  1.04794E+03  9.761E+00  1.200E+01  6.000E-01  4.254E+00
   2   11    7     6     3    7.9516E+02  7.6230E+00   7.8754E+02  0.000E+00  0.000E+00  0.000E+00  1.04334E+03  9.705E+00  1.200E+01  6.000E-01  4.235E+00
   2   12    7     6     4    7.8754E+02  6.5339E+00   7.8101E+02  0.000E+00  0.000E+00  0.000E+00  1.03874E+03  9.653E+00  1.200E+01  6.000E-01  3.630E+00
   2   13    7     6     5    7.8101E+02  1.5143E+00   7.7949E+02  0.000E+00  0.000E+00  0.000E+00  1.03553E+03  9.623E+00  1.200E+01  2.400E-01  2.103E+00
   2   14    9     7     1    1.5000E+02  2.7063E+00   1.4729E+02  0.000E+00  0.000E+00  0.000E+00  1.03986E+03  2.284E+00  5.528E+01  5.591E+00  1.613E-01
   2   13    8     7     2    1.4729E+02  3.6828E+00   1.4361E+02  0.000E+00  0.000E+00  0.000E+00  1.03477E+03  2.267E+00  5.520E+01  6.141E+00  1.999E-01
   2   13    7     7     3    1.4361E+02  2.4925E+00   1.4112E+02  0.000E+00  0.000E+00  0.000E+00  1.02967E+03  2.250E+00  5.513E+01  5.575E+00  1.490E-01
   2   13    6     8     1    9.2061E+02  1.6073E+01   9.0485E+02  3.073E-01  0.000E+00  0.000E+00  1.02732E+03  5.445E+00  6.410E+01  6.586E+00  8.135E-01
   2   13    5     8     2    9.0485E+02  1.1026E+01   8.9413E+02  3.073E-01  0.000E+00  0.000E+00  1.02104E+03  5.415E+00  6.397E+01  6.571E+00  5.593E-01
   2   13    4     8     3    8.9413E+02  6.5650E+00   8.8787E+02  3.073E-01  0.000E+00  0.000E+00  1.01477E+03  5.395E+00  6.389E+01  6.562E+00  3.335E-01
   2   13    3     8     4    8.8787E+02  5.2331E+00   8.8294E+02  3.073E-01  0.000E+00  0.000E+00  1.00851E+03  5.382E+00  6.383E+01  6.556E+00  2.661E-01
   2   13    2     8     5    8.8294E+02  7.9389E+00   8.7531E+02  3.073E-01  0.000E+00  0.000E+00  1.00224E+03  5.367E+00  6.377E+01  6.549E+00  4.041E-01
   2   13    1     8     6    8.7531E+02  5.0074E+00   8.7049E+02  1.844E-01  0.000E+00  0.000E+00  9.97228E+02  5.353E+00  6.371E+01  3.925E+00  4.252E-01
   2    4    5     9     1    0.0000E+00  0.0000E+00   0.0000E+00  0.000E+00  0.000E+00  0.000E+00  1.06000E+03  0.000E+00  2.000E+01  2.000E-03  1.000E+00
   2    4    5    10     1    0.0000E+00  0.0000E+00   0.0000E+00  0.000E+00  0.000E+00  0.000E+00  1.08000E+03  0.000E+00  2.000E+01  2.000E-03  1.000E+00



 ..........LAKE  1 IS DRY..........

     SECTIONS OF THE LAKE BOTTOM HAVE BECOME DRY.  THE DRYSECTIONS
     LIE ABOVE THE FOLLOWING  1 AQUIFER CELLS (LAYER,ROW,COLUMN):
     (  2,  4,  5)  (

 PERIOD     5     TIME STEP    10     TIME STEP LENGTH  1.7520E+05
 PERIOD TIME  1.7520E+06     TOTAL SIMULATION TIME  1.2264E+07


                 HYDROLOGIC BUDGET SUMMARIES FOR SIMULATED LAKES
     (ALL FLUID FLUXES ARE VOLUMES ADDED TO THE LAKE DURING PRESENT TIME STEP)
     ----------------------------------------------------------------------------------------
 LAKE    STAGE         VOLUME     VOL. CHANGE      PRECIP     EVAPORATION    SPECIFIED RUNOFF     COMPUTED RUNOFF    TOTAL RUNOFF
   1  1.074500E+03  0.000000E+00  0.000000E+00  0.000000E+00  0.000000E+00   0.000000E+00          0.000000E+00      0.000000E+00

            GROUND WATER            SURFACE WATER        WATER          UZF INFIL.
 LAKE    INFLOW     OUTFLOW      INFLOW     OUTFLOW       USE        FROM LAKE
   1  0.0000E+00  0.0000E+00  0.0000E+00  0.0000E+00  0.0000E+00       0.0000E+00

      CONNECTED LAKE   TIME-STEP         STAGE-CHANGE          PERCENT
 LAKE    INFLUX      SURFACE AREA   TIME STEP  CUMULATIVE    DISCREPANCY
   1   0.0000E+00     0.0000E+00   0.0000E+00  0.0000E+00       0.000
 --------------------------------------------------------------------------------



            CUMULATIVE HYDROLOGIC BUDGET SUMMARIES FOR SIMULATED LAKES
     (ALL FLUID FLUXES ARE SUMS OF VOLUMES ADDED TO THE LAKE SINCE INITIAL TIME)
     ---------------------------------------------------------------------------
 LAKE       PRECIP       EVAP     SPECIFIED RUNOFF   COMPUTED RUNOFF   TOTAL RUNOFF
   1     0.0000E+00  0.0000E+00       0.0000E+00       0.0000E+00       0.0000E+00

            GROUND WATER            SURFACE WATER       UZF INFIL.
 LAKE    INFLOW     OUTFLOW      INFLOW     OUTFLOW     FROM LAKE
   1  0.0000E+00  0.0000E+00  0.0000E+00  0.0000E+00    0.0000E+00

         WATER    CONNECTED LAKE   CHANGE       PERCENT
 LAKE     USE         INFLUX       IN VOL.    DISCREPANCY
   1   0.0000E+00   0.0000E+00   0.0000E+00      0.000
 --------------------------------------------------------------------------------

 UBDSV3 SAVING "           GW ET" ON UNIT  61 AT TIME STEP    10, STRESS PERIOD   5
 UBDSV3 SAVING "    UZF RECHARGE" ON UNIT  61 AT TIME STEP    10, STRESS PERIOD   5
 UBDSV3 SAVING " SURFACE LEAKAGE" ON UNIT  61 AT TIME STEP    10, STRESS PERIOD   5
 UBDSV3 SAVING "       HORT+DUNN" ON UNIT  61 AT TIME STEP    10, STRESS PERIOD   5
 UBDSV3 SAVING "  STORAGE CHANGE" ON UNIT  61 AT TIME STEP    10, STRESS PERIOD   5


UNSATURATED ZONE PACKAGE VOLUMETRIC BUDGET FOR  TIME STEP    10 STRESS PERIOD    5
  ------------------------------------------------------------------------------



     CUMULATIVE VOLUMES      L**3       RATES FOR THIS TIME STEP      L**3/T
     ------------------                 ------------------------

           IN:                                      IN:
           ---                                      ---
        INFILTRATION =   920072513.6602          INFILTRATION =          42.1304

          OUT:                                     OUT:
          ----                                     ----
              UZF ET =   845972821.7951                UZF ET =          83.1970
        UZF RECHARGE =   323741714.7522          UZF RECHARGE =          60.9004

            IN - OUT =  -249642022.8872              IN - OUT =        -101.9669

          STORAGE:                                 STORAGE:
          --------                                 --------
      STORAGE CHANGE =  -249484577.8980        STORAGE CHANGE =        -101.8056

 PERCENT DISCREPANCY IS DIFFERENCE BETWEEN IN-OUT MINUS CHANGE IN STORAGE
 DIVIDED BY THE AVERAGE OF IN AND OUT TIMES 100

 PERCENT DISCREPANCY =          -0.00     PERCENT DISCREPANCY =          -0.11






1
  VOLUMETRIC BUDGET FOR ENTIRE MODEL AT END OF TIME STEP   10, STRESS PERIOD   5
  ------------------------------------------------------------------------------

     CUMULATIVE VOLUMES      L**3       RATES FOR THIS TIME STEP      L**3/T
     ------------------                 ------------------------

           IN:                                      IN:
           ---                                      ---
             STORAGE =    36827860.0000               STORAGE =           9.8062
       CONSTANT HEAD =           0.0000         CONSTANT HEAD =           0.0000
               WELLS =           0.0000                 WELLS =           0.0000
     HEAD DEP BOUNDS =     2633841.5000       HEAD DEP BOUNDS =           0.2135
      STREAM LEAKAGE =   611712064.0000        STREAM LEAKAGE =         230.1860
       LAKE  SEEPAGE =           0.0000         LAKE  SEEPAGE =           0.0000
        UZF RECHARGE =   323741664.0000          UZF RECHARGE =          60.9004
               GW ET =           0.0000                 GW ET =           0.0000
     SURFACE LEAKAGE =           0.0000       SURFACE LEAKAGE =           0.0000

            TOTAL IN =   974915456.0000              TOTAL IN =         301.1061

          OUT:                                     OUT:
          ----                                     ----
             STORAGE =   378427072.0000               STORAGE =         256.6627
       CONSTANT HEAD =           0.0000         CONSTANT HEAD =           0.0000
               WELLS =   210240000.0000                 WELLS =          30.0000
     HEAD DEP BOUNDS =     3555813.0000       HEAD DEP BOUNDS =           0.3022
      STREAM LEAKAGE =   229458928.0000        STREAM LEAKAGE =           0.0000
       LAKE  SEEPAGE =           0.0000         LAKE  SEEPAGE =           0.0000
        UZF RECHARGE =           0.0000          UZF RECHARGE =           0.0000
               GW ET =   152934944.0000                 GW ET =          12.5401
     SURFACE LEAKAGE =      280440.8125       SURFACE LEAKAGE =           1.6007

           TOTAL OUT =   974897280.0000             TOTAL OUT =         301.1056

            IN - OUT =       18176.0000              IN - OUT =       4.8828E-04

 PERCENT DISCREPANCY =           0.00     PERCENT DISCREPANCY =           0.00






         TIME SUMMARY AT END OF TIME STEP   10 IN STRESS PERIOD    5
                    SECONDS     MINUTES      HOURS       DAYS        YEARS
                    -----------------------------------------------------------
   TIME STEP LENGTH 1.75200E+05  2920.0      48.667      2.0278     5.55175E-03
 STRESS PERIOD TIME 1.75200E+06  29200.      486.67      20.278     5.55175E-02
         TOTAL TIME 1.22640E+07 2.04400E+05  3406.7      141.94     0.38862    
1
 
 SOLVING FOR HEAD 
                                                   Max.-Head-Change                         Max.-Flux-Residual
  Residual-Control   Outer-Iter.   Inner-Iter.     Column Row Layer    Maximum-Head-Change  Column Row Layer    Maximum-Flux-Residual          L2-NORM 
          0                 1           2             2    2     2       0.1543366490E+01       2    2    2         0.4162789800E+02      0.1002201602E+03
          0                 2           2             2    2     2      -0.1476017353E+00       4   13    2         0.4535967250E+01      0.8249346672E+01
          0                 3           2             4   13     2       0.1630906764E-01       4   13    2         0.3499126736E+00      0.5210150359E+00
          0                 4           1             4   13     2      -0.1472742192E-02       4   13    2        -0.3304411455E-01      0.3670961728E-01
          0                 5           1             4   13     2       0.7860157724E-04       4   13    2         0.1832724152E-02      0.1953925646E-02

    ------------------------------------------------
       NWT REQUIRED            5 OUTER ITERATIONS 
       AND A TOTAL OF          8 INNER ITERATIONS.
    ------------------------------------------------

 OUTPUT CONTROL FOR STRESS PERIOD    5   TIME STEP   11
    PRINT BUDGET
    SAVE BUDGET

            WELLS   PERIOD    5   STEP  11
 WELL      1   LAYER   2   ROW     6   COL     4   RATE    -3.00000    
 WELL      2   LAYER   2   ROW     6   COL     5   RATE    -3.00000    
 WELL      3   LAYER   2   ROW     7   COL     4   RATE    -3.00000    
 WELL      4   LAYER   2   ROW     7   COL     5   RATE    -3.00000    
 WELL      5   LAYER   2   ROW     8   COL     4   RATE    -3.00000    
 WELL      6   LAYER   2   ROW     8   COL     5   RATE    -3.00000    
 WELL      7   LAYER   2   ROW     9   COL     4   RATE    -3.00000    
 WELL      8   LAYER   2   ROW     9   COL     5   RATE    -3.00000    
 WELL      9   LAYER   2   ROW    10   COL     4   RATE    -3.00000    
 WELL     10   LAYER   2   ROW    10   COL     5   RATE    -3.00000    

  HEAD DEP BOUNDS   PERIOD    5   STEP    11
 BOUNDARY      1   LAYER   2   ROW    13   COL     1   RATE   -0.323269    
 BOUNDARY      2   LAYER   2   ROW    14   COL     9   RATE    0.213464    



 STREAM LISTING     PERIOD      5   STEP       11

 LAYER ROW COL. STREAM  RCH.  FLOW INTO     FLOW TO   FLOW OUT OF   OVRLND.     DIRECT     STREAM       STREAM     STREAM     STREAM   STREAMBED  STREAMBED
                SEG.NO.  NO.  STRM. RCH.    AQUIFER    STRM. RCH.    RUNOFF     PRECIP       ET          HEAD       DEPTH      WIDTH   CONDCTNC.   GRADIENT

   2    1    1     1     1    2.5200E+03  2.3467E+01   2.4965E+03  0.000E+00  0.000E+00  0.000E+00  1.09903E+03  5.979E+00  7.390E+01  3.326E+00  2.352E+00
   2    2    2     1     2    2.4965E+03  4.6049E+01   2.4505E+03  0.000E+00  0.000E+00  0.000E+00  1.09401E+03  5.948E+00  7.352E+01  5.146E+00  2.983E+00
   2    3    3     1     3    2.4505E+03  3.9046E+01   2.4114E+03  0.000E+00  0.000E+00  0.000E+00  1.08833E+03  5.910E+00  7.304E+01  4.382E+00  2.970E+00
   2    3    4     1     4    2.4114E+03  3.5770E+01   2.3757E+03  0.000E+00  0.000E+00  0.000E+00  1.08328E+03  5.876E+00  7.261E+01  4.030E+00  2.959E+00
   2    4    5     2     1    2.0000E+03  0.0000E+00   2.0000E+03  0.000E+00  0.000E+00  0.000E+00  1.08864E+03  1.670E+01  1.200E+01  7.800E-01  6.567E+00
   2    5    6     2     2    2.0000E+03  1.1780E+01   1.9882E+03  0.000E+00  0.000E+00  0.000E+00  1.08314E+03  1.663E+01  1.200E+01  6.000E-01  6.544E+00
   2    6    6     2     3    1.9882E+03  1.1744E+01   1.9765E+03  0.000E+00  0.000E+00  0.000E+00  1.07837E+03  1.657E+01  1.200E+01  6.000E-01  6.525E+00
   2    7    6     2     4    1.9765E+03  1.1709E+01   1.9648E+03  0.000E+00  0.000E+00  0.000E+00  1.07359E+03  1.651E+01  1.200E+01  6.000E-01  6.505E+00
   2    8    6     2     5    1.9648E+03  1.1673E+01   1.9531E+03  0.000E+00  0.000E+00  0.000E+00  1.06881E+03  1.646E+01  1.200E+01  6.000E-01  6.485E+00
   2    3    5     3     1    1.0000E+01  2.8252E+00   7.1748E+00  0.000E+00  0.000E+00  0.000E+00  1.07555E+03  1.909E+00  9.636E+00  7.227E-01  1.955E+00
   2    3    6     3     2    7.1748E+00  2.4905E+00   4.6843E+00  0.000E+00  0.000E+00  0.000E+00  1.07264E+03  1.727E+00  8.909E+00  6.682E-01  1.864E+00
   2    3    7     3     3    4.6843E+00  1.9718E+00   2.7125E+00  0.000E+00  0.000E+00  0.000E+00  1.06987E+03  1.555E+00  8.218E+00  5.547E-01  1.777E+00
   2    4    8     3     4    2.7125E+00  2.2567E+00   4.5579E-01  0.000E+00  0.000E+00  0.000E+00  1.06682E+03  1.364E+00  7.455E+00  6.709E-01  1.682E+00
   2    5    8     3     5    4.5579E-01  4.5579E-01   0.0000E+00  0.000E+00  0.000E+00  0.000E+00  1.06362E+03  0.000E+00  6.655E+00  4.991E-01  1.582E+00
   2    6    8     3     6    0.0000E+00  0.0000E+00   0.0000E+00  0.000E+00  0.000E+00  0.000E+00  1.06055E+03  0.000E+00  6.145E+00  1.844E-01  1.000E+00
   2    5   10     4     1    1.0000E+01  9.0525E-01   9.0947E+00  0.000E+00  0.000E+00  0.000E+00  1.07835E+03  6.210E-01  1.000E+01  2.500E-01  1.207E+00
   2    5    9     4     2    9.0947E+00  1.7835E+00   7.3113E+00  0.000E+00  0.000E+00  0.000E+00  1.07148E+03  5.670E-01  1.000E+01  5.000E-01  1.189E+00
   2    6    8     4     3    7.3113E+00  1.2257E+00   6.0855E+00  0.000E+00  0.000E+00  0.000E+00  1.06368E+03  5.021E-01  1.000E+01  3.500E-01  1.167E+00
   2    6    8     5     1    6.0855E+00  1.4716E+00   4.6139E+00  0.000E+00  0.000E+00  0.000E+00  1.05854E+03  5.396E-01  1.039E+01  4.158E-01  1.180E+00
   2    7    7     5     2    4.6139E+00  1.4897E+00   3.1242E+00  0.000E+00  0.000E+00  0.000E+00  1.05398E+03  4.817E-01  8.557E+00  4.279E-01  1.161E+00
   2    8    7     5     3    3.1242E+00  8.2855E-01   2.2957E+00  0.000E+00  0.000E+00  0.000E+00  1.04968E+03  4.253E-01  6.911E+00  2.419E-01  1.142E+00
   2    8    6     5     4    2.2957E+00  4.9455E-01   1.8011E+00  0.000E+00  0.000E+00  0.000E+00  1.04664E+03  3.856E-01  5.843E+00  1.461E-01  1.129E+00
   2    9    6     6     1    1.9549E+03  1.1753E+01   1.9431E+03  0.000E+00  0.000E+00  0.000E+00  1.05932E+03  1.659E+01  1.200E+01  6.000E-01  6.529E+00
   2   10    7     6     2    1.9431E+03  1.1717E+01   1.9314E+03  0.000E+00  0.000E+00  0.000E+00  1.05471E+03  1.653E+01  1.200E+01  6.000E-01  6.509E+00
   2   11    7     6     3    1.9314E+03  1.1680E+01   1.9197E+03  0.000E+00  0.000E+00  0.000E+00  1.05010E+03  1.647E+01  1.200E+01  6.000E-01  6.489E+00
   2   12    7     6     4    1.9197E+03  1.0374E+01   1.9094E+03  0.000E+00  0.000E+00  0.000E+00  1.04550E+03  1.641E+01  1.200E+01  6.000E-01  5.764E+00
   2   13    7     6     5    1.9094E+03  3.1025E+00   1.9063E+03  0.000E+00  0.000E+00  0.000E+00  1.04228E+03  1.638E+01  1.200E+01  2.400E-01  4.309E+00
   2   14    9     7     1    1.5000E+02  2.6964E+00   1.4730E+02  0.000E+00  0.000E+00  0.000E+00  1.03986E+03  2.284E+00  5.528E+01  5.591E+00  1.607E-01
   2   13    8     7     2    1.4730E+02  3.6718E+00   1.4363E+02  0.000E+00  0.000E+00  0.000E+00  1.03477E+03  2.267E+00  5.520E+01  6.141E+00  1.993E-01
   2   13    7     7     3    1.4363E+02  1.7552E+00   1.4188E+02  0.000E+00  0.000E+00  0.000E+00  1.02967E+03  2.253E+00  5.514E+01  5.576E+00  1.049E-01
   2   13    6     8     1    2.0481E+03  2.7647E+01   2.0262E+03  5.730E+00  0.000E+00  0.000E+00  1.02942E+03  7.542E+00  7.295E+01  7.565E+00  1.218E+00
   2   13    5     8     2    2.0262E+03  2.2464E+01   2.0095E+03  5.730E+00  0.000E+00  0.000E+00  1.02314E+03  7.511E+00  7.282E+01  7.551E+00  9.917E-01
   2   13    4     8     3    2.0095E+03  1.7141E+01   1.9981E+03  5.730E+00  0.000E+00  0.000E+00  1.01686E+03  7.488E+00  7.273E+01  7.540E+00  7.577E-01
   2   13    3     8     4    1.9981E+03  1.6456E+01   1.9874E+03  5.730E+00  0.000E+00  0.000E+00  1.01060E+03  7.470E+00  7.265E+01  7.532E+00  7.283E-01
   2   13    2     8     5    1.9874E+03  1.8839E+01   1.9743E+03  5.730E+00  0.000E+00  0.000E+00  1.00433E+03  7.451E+00  7.257E+01  7.523E+00  8.347E-01
   2   13    1     8     6    1.9743E+03  1.2626E+01   1.9651E+03  3.438E+00  0.000E+00  0.000E+00  9.99308E+02  7.433E+00  7.249E+01  4.509E+00  9.335E-01
   2    4    5     9     1    3.6567E+02  0.0000E+00   3.6567E+02  0.000E+00  0.000E+00  0.000E+00  1.06045E+03  4.467E-01  2.000E+01  2.000E-03  1.149E+00
   2    4    5    10     1    0.0000E+00  0.0000E+00   0.0000E+00  0.000E+00  0.000E+00  0.000E+00  1.08000E+03  0.000E+00  2.000E+01  2.000E-03  1.000E+00





     0  LAKE CELLS ARE DRY.

 PERIOD     5     TIME STEP    11     TIME STEP LENGTH  1.7520E+05
 PERIOD TIME  1.9272E+06     TOTAL SIMULATION TIME  1.2439E+07


                 HYDROLOGIC BUDGET SUMMARIES FOR SIMULATED LAKES
     (ALL FLUID FLUXES ARE VOLUMES ADDED TO THE LAKE DURING PRESENT TIME STEP)
     ----------------------------------------------------------------------------------------
 LAKE    STAGE         VOLUME     VOL. CHANGE      PRECIP     EVAPORATION    SPECIFIED RUNOFF     COMPUTED RUNOFF    TOTAL RUNOFF
   1  1.080961E+03  5.541181E+07  5.541181E+07  0.000000E+00  1.191511E+05   0.000000E+00          0.000000E+00      0.000000E+00

            GROUND WATER            SURFACE WATER        WATER          UZF INFIL.
 LAKE    INFLOW     OUTFLOW      INFLOW     OUTFLOW       USE        FROM LAKE
   1  0.0000E+00  0.0000E+00  6.4065E+07  0.0000E+00  0.0000E+00       8.5326E+06

      CONNECTED LAKE   TIME-STEP         STAGE-CHANGE          PERCENT
 LAKE    INFLUX      SURFACE AREA   TIME STEP  CUMULATIVE    DISCREPANCY
   1   0.0000E+00     1.7002E+07   6.4607E+00  6.4607E+00       0.002
 --------------------------------------------------------------------------------



            CUMULATIVE HYDROLOGIC BUDGET SUMMARIES FOR SIMULATED LAKES
     (ALL FLUID FLUXES ARE SUMS OF VOLUMES ADDED TO THE LAKE SINCE INITIAL TIME)
     ---------------------------------------------------------------------------
 LAKE       PRECIP       EVAP     SPECIFIED RUNOFF   COMPUTED RUNOFF   TOTAL RUNOFF
   1     0.0000E+00  1.1915E+05       0.0000E+00       0.0000E+00       0.0000E+00

            GROUND WATER            SURFACE WATER       UZF INFIL.
 LAKE    INFLOW     OUTFLOW      INFLOW     OUTFLOW     FROM LAKE
   1  0.0000E+00  0.0000E+00  6.4065E+07  0.0000E+00    8.5326E+06

         WATER    CONNECTED LAKE   CHANGE       PERCENT
 LAKE     USE         INFLUX       IN VOL.    DISCREPANCY
   1   0.0000E+00   0.0000E+00   5.5412E+07      0.002
 --------------------------------------------------------------------------------

 UBDSV3 SAVING "           GW ET" ON UNIT  61 AT TIME STEP    11, STRESS PERIOD   5
 UBDSV3 SAVING "    UZF RECHARGE" ON UNIT  61 AT TIME STEP    11, STRESS PERIOD   5
 UBDSV3 SAVING " SURFACE LEAKAGE" ON UNIT  61 AT TIME STEP    11, STRESS PERIOD   5
 UBDSV3 SAVING "       HORT+DUNN" ON UNIT  61 AT TIME STEP    11, STRESS PERIOD   5
 UBDSV3 SAVING "  STORAGE CHANGE" ON UNIT  61 AT TIME STEP    11, STRESS PERIOD   5


UNSATURATED ZONE PACKAGE VOLUMETRIC BUDGET FOR  TIME STEP    11 STRESS PERIOD    5
  ------------------------------------------------------------------------------



     CUMULATIVE VOLUMES      L**3       RATES FOR THIS TIME STEP      L**3/T
     ------------------                 ------------------------

           IN:                                      IN:
           ---                                      ---
        INFILTRATION =   935894551.5549          INFILTRATION =          90.3084

          OUT:                                     OUT:
          ----                                     ----
              UZF ET =   860581775.9506                UZF ET =          83.3844
        UZF RECHARGE =   334718357.6516          UZF RECHARGE =          62.6521

            IN - OUT =  -259405582.0473              IN - OUT =         -55.7281

          STORAGE:                                 STORAGE:
          --------                                 --------
      STORAGE CHANGE =  -259205685.1138        STORAGE CHANGE =         -55.4858

 PERCENT DISCREPANCY IS DIFFERENCE BETWEEN IN-OUT MINUS CHANGE IN STORAGE
 DIVIDED BY THE AVERAGE OF IN AND OUT TIMES 100

 PERCENT DISCREPANCY =          -0.00     PERCENT DISCREPANCY =          -0.17






1
  VOLUMETRIC BUDGET FOR ENTIRE MODEL AT END OF TIME STEP   11, STRESS PERIOD   5
  ------------------------------------------------------------------------------

     CUMULATIVE VOLUMES      L**3       RATES FOR THIS TIME STEP      L**3/T
     ------------------                 ------------------------

           IN:                                      IN:
           ---                                      ---
             STORAGE =    38042180.0000               STORAGE =           6.9310
       CONSTANT HEAD =           0.0000         CONSTANT HEAD =           0.0000
               WELLS =           0.0000                 WELLS =           0.0000
     HEAD DEP BOUNDS =     2671240.2500       HEAD DEP BOUNDS =           0.2135
      STREAM LEAKAGE =   678526528.0000        STREAM LEAKAGE =         381.3611
       LAKE  SEEPAGE =           0.0000         LAKE  SEEPAGE =           0.0000
        UZF RECHARGE =   334718304.0000          UZF RECHARGE =          62.6521
               GW ET =           0.0000                 GW ET =           0.0000
     SURFACE LEAKAGE =           0.0000       SURFACE LEAKAGE =           0.0000

            TOTAL IN =  1053958272.0000              TOTAL IN =         451.1577

          OUT:                                     OUT:
          ----                                     ----
             STORAGE =   447048320.0000               STORAGE =         391.6737
       CONSTANT HEAD =           0.0000         CONSTANT HEAD =           0.0000
               WELLS =   215496000.0000                 WELLS =          30.0000
     HEAD DEP BOUNDS =     3612449.7500       HEAD DEP BOUNDS =           0.3233
      STREAM LEAKAGE =   229458928.0000        STREAM LEAKAGE =           0.0000
       LAKE  SEEPAGE =           0.0000         LAKE  SEEPAGE =           0.0000
        UZF RECHARGE =           0.0000          UZF RECHARGE =           0.0000
               GW ET =   155227904.0000                 GW ET =          13.0877
     SURFACE LEAKAGE =     5790007.0000       SURFACE LEAKAGE =          31.4473

           TOTAL OUT =  1056633664.0000             TOTAL OUT =         466.5319

            IN - OUT =    -2675392.0000              IN - OUT =         -15.3742

 PERCENT DISCREPANCY =          -0.25     PERCENT DISCREPANCY =          -3.35






         TIME SUMMARY AT END OF TIME STEP   11 IN STRESS PERIOD    5
                    SECONDS     MINUTES      HOURS       DAYS        YEARS
                    -----------------------------------------------------------
   TIME STEP LENGTH 1.75200E+05  2920.0      48.667      2.0278     5.55175E-03
 STRESS PERIOD TIME 1.92720E+06  32120.      535.33      22.306     6.10693E-02
         TOTAL TIME 1.24392E+07 2.07320E+05  3455.3      143.97     0.39417    
1
 
 SOLVING FOR HEAD 
                                                   Max.-Head-Change                         Max.-Flux-Residual
  Residual-Control   Outer-Iter.   Inner-Iter.     Column Row Layer    Maximum-Head-Change  Column Row Layer    Maximum-Flux-Residual          L2-NORM 
          0                 1           2             2    2     2       0.1487709870E+01       2    2    2         0.4010451641E+02      0.8268484267E+02
          0                 2           2             1   13     2      -0.1540192834E+00       1   13    2        -0.1083066695E+02      0.1272276508E+02
          0                 3           2             5   13     2       0.2573438508E-01       5   13    2         0.5210801074E+00      0.1108178313E+01
          0                 4           1             6   13     2       0.1163710149E-02       6   13    2         0.4390658651E-01      0.7622533409E-01
          0                 5           1             5   13     2      -0.1009564222E-03       3   13    2        -0.2239663499E-02      0.4171583688E-02

    ------------------------------------------------
       NWT REQUIRED            5 OUTER ITERATIONS 
       AND A TOTAL OF          8 INNER ITERATIONS.
    ------------------------------------------------

 OUTPUT CONTROL FOR STRESS PERIOD    5   TIME STEP   12
    PRINT BUDGET
    SAVE BUDGET

            WELLS   PERIOD    5   STEP  12
 WELL      1   LAYER   2   ROW     6   COL     4   RATE    -3.00000    
 WELL      2   LAYER   2   ROW     6   COL     5   RATE    -3.00000    
 WELL      3   LAYER   2   ROW     7   COL     4   RATE    -3.00000    
 WELL      4   LAYER   2   ROW     7   COL     5   RATE    -3.00000    
 WELL      5   LAYER   2   ROW     8   COL     4   RATE    -3.00000    
 WELL      6   LAYER   2   ROW     8   COL     5   RATE    -3.00000    
 WELL      7   LAYER   2   ROW     9   COL     4   RATE    -3.00000    
 WELL      8   LAYER   2   ROW     9   COL     5   RATE    -3.00000    
 WELL      9   LAYER   2   ROW    10   COL     4   RATE    -3.00000    
 WELL     10   LAYER   2   ROW    10   COL     5   RATE    -3.00000    

  HEAD DEP BOUNDS   PERIOD    5   STEP    12
 BOUNDARY      1   LAYER   2   ROW    13   COL     1   RATE   -0.335866    
 BOUNDARY      2   LAYER   2   ROW    14   COL     9   RATE    0.213433    



 STREAM LISTING     PERIOD      5   STEP       12

 LAYER ROW COL. STREAM  RCH.  FLOW INTO     FLOW TO   FLOW OUT OF   OVRLND.     DIRECT     STREAM       STREAM     STREAM     STREAM   STREAMBED  STREAMBED
                SEG.NO.  NO.  STRM. RCH.    AQUIFER    STRM. RCH.    RUNOFF     PRECIP       ET          HEAD       DEPTH      WIDTH   CONDCTNC.   GRADIENT

   2    1    1     1     1    2.5200E+03  2.1315E+01   2.4987E+03  0.000E+00  0.000E+00  0.000E+00  1.09903E+03  5.980E+00  7.391E+01  3.326E+00  2.136E+00
   2    2    2     1     2    2.4987E+03  4.6074E+01   2.4526E+03  0.000E+00  0.000E+00  0.000E+00  1.09401E+03  5.950E+00  7.354E+01  5.148E+00  2.983E+00
   2    3    3     1     3    2.4526E+03  3.9067E+01   2.4135E+03  0.000E+00  0.000E+00  0.000E+00  1.08833E+03  5.912E+00  7.306E+01  4.384E+00  2.971E+00
   2    3    4     1     4    2.4135E+03  3.5790E+01   2.3778E+03  0.000E+00  0.000E+00  0.000E+00  1.08329E+03  5.878E+00  7.264E+01  4.031E+00  2.959E+00
   2    4    5     2     1    2.0378E+03  0.0000E+00   2.0378E+03  0.000E+00  0.000E+00  0.000E+00  1.08882E+03  1.689E+01  1.200E+01  7.800E-01  6.630E+00
   2    5    6     2     2    2.0378E+03  1.1893E+01   2.0259E+03  0.000E+00  0.000E+00  0.000E+00  1.08333E+03  1.682E+01  1.200E+01  6.000E-01  6.607E+00
   2    6    6     2     3    2.0259E+03  1.1858E+01   2.0140E+03  0.000E+00  0.000E+00  0.000E+00  1.07856E+03  1.676E+01  1.200E+01  6.000E-01  6.588E+00
   2    7    6     2     4    2.0140E+03  1.1822E+01   2.0022E+03  0.000E+00  0.000E+00  0.000E+00  1.07378E+03  1.670E+01  1.200E+01  6.000E-01  6.568E+00
   2    8    6     2     5    2.0022E+03  1.1786E+01   1.9904E+03  0.000E+00  0.000E+00  0.000E+00  1.06900E+03  1.664E+01  1.200E+01  6.000E-01  6.548E+00
   2    3    5     3     1    1.0000E+01  2.8252E+00   7.1748E+00  0.000E+00  0.000E+00  0.000E+00  1.07555E+03  1.909E+00  9.636E+00  7.227E-01  1.955E+00
   2    3    6     3     2    7.1748E+00  2.4905E+00   4.6843E+00  0.000E+00  0.000E+00  0.000E+00  1.07264E+03  1.727E+00  8.909E+00  6.682E-01  1.864E+00
   2    3    7     3     3    4.6843E+00  1.9718E+00   2.7125E+00  0.000E+00  0.000E+00  0.000E+00  1.06987E+03  1.555E+00  8.218E+00  5.547E-01  1.777E+00
   2    4    8     3     4    2.7125E+00  2.2567E+00   4.5579E-01  0.000E+00  0.000E+00  0.000E+00  1.06682E+03  1.364E+00  7.455E+00  6.709E-01  1.682E+00
   2    5    8     3     5    4.5579E-01  4.5579E-01   0.0000E+00  0.000E+00  0.000E+00  0.000E+00  1.06362E+03  0.000E+00  6.655E+00  4.991E-01  1.582E+00
   2    6    8     3     6    0.0000E+00  0.0000E+00   0.0000E+00  0.000E+00  0.000E+00  0.000E+00  1.06055E+03  0.000E+00  6.145E+00  1.844E-01  1.000E+00
   2    5   10     4     1    1.0000E+01  9.0525E-01   9.0947E+00  0.000E+00  0.000E+00  0.000E+00  1.07835E+03  6.210E-01  1.000E+01  2.500E-01  1.207E+00
   2    5    9     4     2    9.0947E+00  1.7835E+00   7.3113E+00  0.000E+00  0.000E+00  0.000E+00  1.07148E+03  5.670E-01  1.000E+01  5.000E-01  1.189E+00
   2    6    8     4     3    7.3113E+00  1.2257E+00   6.0855E+00  0.000E+00  0.000E+00  0.000E+00  1.06368E+03  5.021E-01  1.000E+01  3.500E-01  1.167E+00
   2    6    8     5     1    6.0855E+00  1.4716E+00   4.6139E+00  0.000E+00  0.000E+00  0.000E+00  1.05854E+03  5.396E-01  1.039E+01  4.158E-01  1.180E+00
   2    7    7     5     2    4.6139E+00  1.4897E+00   3.1242E+00  0.000E+00  0.000E+00  0.000E+00  1.05398E+03  4.817E-01  8.557E+00  4.279E-01  1.161E+00
   2    8    7     5     3    3.1242E+00  8.2855E-01   2.2957E+00  0.000E+00  0.000E+00  0.000E+00  1.04968E+03  4.253E-01  6.911E+00  2.419E-01  1.142E+00
   2    8    6     5     4    2.2957E+00  4.9455E-01   1.8011E+00  0.000E+00  0.000E+00  0.000E+00  1.04664E+03  3.856E-01  5.843E+00  1.461E-01  1.129E+00
   2    9    6     6     1    1.9922E+03  1.1867E+01   1.9804E+03  0.000E+00  0.000E+00  0.000E+00  1.05951E+03  1.678E+01  1.200E+01  6.000E-01  6.593E+00
   2   10    7     6     2    1.9804E+03  1.1831E+01   1.9685E+03  0.000E+00  0.000E+00  0.000E+00  1.05490E+03  1.672E+01  1.200E+01  6.000E-01  6.573E+00
   2   11    7     6     3    1.9685E+03  1.1794E+01   1.9568E+03  0.000E+00  0.000E+00  0.000E+00  1.05029E+03  1.666E+01  1.200E+01  6.000E-01  6.552E+00
   2   12    7     6     4    1.9568E+03  1.0290E+01   1.9465E+03  0.000E+00  0.000E+00  0.000E+00  1.04569E+03  1.660E+01  1.200E+01  6.000E-01  5.717E+00
   2   13    7     6     5    1.9465E+03  3.1176E+00   1.9433E+03  0.000E+00  0.000E+00  0.000E+00  1.04248E+03  1.657E+01  1.200E+01  2.400E-01  4.330E+00
   2   14    9     7     1    1.5000E+02  2.6920E+00   1.4731E+02  0.000E+00  0.000E+00  0.000E+00  1.03986E+03  2.284E+00  5.528E+01  5.591E+00  1.605E-01
   2   13    8     7     2    1.4731E+02  3.6508E+00   1.4366E+02  0.000E+00  0.000E+00  0.000E+00  1.03477E+03  2.267E+00  5.520E+01  6.141E+00  1.982E-01
   2   13    7     7     3    1.4366E+02  1.0520E+00   1.4261E+02  0.000E+00  0.000E+00  0.000E+00  1.02967E+03  2.255E+00  5.515E+01  5.577E+00  6.288E-02
   2   13    6     8     1    2.0859E+03  2.3147E+01   2.0733E+03  1.055E+01  0.000E+00  0.000E+00  1.02948E+03  7.609E+00  7.324E+01  7.597E+00  1.016E+00
   2   13    5     8     2    2.0733E+03  1.7267E+01   2.0666E+03  1.055E+01  0.000E+00  0.000E+00  1.02322E+03  7.594E+00  7.317E+01  7.590E+00  7.584E-01
   2   13    4     8     3    2.0666E+03  1.5205E+01   2.0620E+03  1.055E+01  0.000E+00  0.000E+00  1.01696E+03  7.585E+00  7.314E+01  7.586E+00  6.681E-01
   2   13    3     8     4    2.0620E+03  1.4801E+01   2.0577E+03  1.055E+01  0.000E+00  0.000E+00  1.01070E+03  7.578E+00  7.311E+01  7.582E+00  6.507E-01
   2   13    2     8     5    2.0577E+03  1.5136E+01   2.0531E+03  1.055E+01  0.000E+00  0.000E+00  1.00445E+03  7.571E+00  7.308E+01  7.579E+00  6.657E-01
   2   13    1     8     6    2.0531E+03  1.1813E+01   2.0476E+03  6.328E+00  0.000E+00  0.000E+00  9.99438E+02  7.563E+00  7.304E+01  4.545E+00  8.664E-01
   2    4    5     9     1    3.6775E+02  0.0000E+00   3.6775E+02  0.000E+00  0.000E+00  0.000E+00  1.06045E+03  4.482E-01  2.000E+01  2.000E-03  1.149E+00
   2    4    5    10     1    3.7806E+01  0.0000E+00   3.7806E+01  0.000E+00  0.000E+00  0.000E+00  1.08016E+03  1.643E-01  2.000E+01  2.000E-03  1.055E+00





     0  LAKE CELLS ARE DRY.

 PERIOD     5     TIME STEP    12     TIME STEP LENGTH  1.7520E+05
 PERIOD TIME  2.1024E+06     TOTAL SIMULATION TIME  1.2614E+07


                 HYDROLOGIC BUDGET SUMMARIES FOR SIMULATED LAKES
     (ALL FLUID FLUXES ARE VOLUMES ADDED TO THE LAKE DURING PRESENT TIME STEP)
     ----------------------------------------------------------------------------------------
 LAKE    STAGE         VOLUME     VOL. CHANGE      PRECIP     EVAPORATION    SPECIFIED RUNOFF     COMPUTED RUNOFF    TOTAL RUNOFF
   1  1.083163E+03  9.948302E+07  4.407120E+07  0.000000E+00  1.596343E+05   0.000000E+00          0.000000E+00      0.000000E+00

            GROUND WATER            SURFACE WATER        WATER          UZF INFIL.
 LAKE    INFLOW     OUTFLOW      INFLOW     OUTFLOW       USE        FROM LAKE
   1  0.0000E+00  0.0000E+00  6.4430E+07  6.6237E+06  0.0000E+00       1.3575E+07

      CONNECTED LAKE   TIME-STEP         STAGE-CHANGE          PERCENT
 LAKE    INFLUX      SURFACE AREA   TIME STEP  CUMULATIVE    DISCREPANCY
   1   0.0000E+00     2.2779E+07   2.2026E+00  8.6633E+00       0.002
 --------------------------------------------------------------------------------



            CUMULATIVE HYDROLOGIC BUDGET SUMMARIES FOR SIMULATED LAKES
     (ALL FLUID FLUXES ARE SUMS OF VOLUMES ADDED TO THE LAKE SINCE INITIAL TIME)
     ---------------------------------------------------------------------------
 LAKE       PRECIP       EVAP     SPECIFIED RUNOFF   COMPUTED RUNOFF   TOTAL RUNOFF
   1     0.0000E+00  2.7879E+05       0.0000E+00       0.0000E+00       0.0000E+00

            GROUND WATER            SURFACE WATER       UZF INFIL.
 LAKE    INFLOW     OUTFLOW      INFLOW     OUTFLOW     FROM LAKE
   1  0.0000E+00  0.0000E+00  1.2850E+08  6.6237E+06    2.2107E+07

         WATER    CONNECTED LAKE   CHANGE       PERCENT
 LAKE     USE         INFLUX       IN VOL.    DISCREPANCY
   1   0.0000E+00   0.0000E+00   9.9483E+07      0.002
 --------------------------------------------------------------------------------

 UBDSV3 SAVING "           GW ET" ON UNIT  61 AT TIME STEP    12, STRESS PERIOD   5
 UBDSV3 SAVING "    UZF RECHARGE" ON UNIT  61 AT TIME STEP    12, STRESS PERIOD   5
 UBDSV3 SAVING " SURFACE LEAKAGE" ON UNIT  61 AT TIME STEP    12, STRESS PERIOD   5
 UBDSV3 SAVING "       HORT+DUNN" ON UNIT  61 AT TIME STEP    12, STRESS PERIOD   5
 UBDSV3 SAVING "  STORAGE CHANGE" ON UNIT  61 AT TIME STEP    12, STRESS PERIOD   5


UNSATURATED ZONE PACKAGE VOLUMETRIC BUDGET FOR  TIME STEP    12 STRESS PERIOD    5
  ------------------------------------------------------------------------------



     CUMULATIVE VOLUMES      L**3       RATES FOR THIS TIME STEP      L**3/T
     ------------------                 ------------------------

           IN:                                      IN:
           ---                                      ---
        INFILTRATION =   956732653.8030          INFILTRATION =         118.9389

          OUT:                                     OUT:
          ----                                     ----
              UZF ET =   875146207.7035                UZF ET =          83.1303
        UZF RECHARGE =   344835370.9191          UZF RECHARGE =          57.7455

            IN - OUT =  -263248924.8197              IN - OUT =         -21.9369

          STORAGE:                                 STORAGE:
          --------                                 --------
      STORAGE CHANGE =  -263014991.3010        STORAGE CHANGE =         -21.7426

 PERCENT DISCREPANCY IS DIFFERENCE BETWEEN IN-OUT MINUS CHANGE IN STORAGE
 DIVIDED BY THE AVERAGE OF IN AND OUT TIMES 100

 PERCENT DISCREPANCY =          -0.00     PERCENT DISCREPANCY =          -0.14






1
  VOLUMETRIC BUDGET FOR ENTIRE MODEL AT END OF TIME STEP   12, STRESS PERIOD   5
  ------------------------------------------------------------------------------

     CUMULATIVE VOLUMES      L**3       RATES FOR THIS TIME STEP      L**3/T
     ------------------                 ------------------------

           IN:                                      IN:
           ---                                      ---
             STORAGE =    39008684.0000               STORAGE =           5.5166
       CONSTANT HEAD =           0.0000         CONSTANT HEAD =           0.0000
               WELLS =           0.0000                 WELLS =           0.0000
     HEAD DEP BOUNDS =     2708633.7500       HEAD DEP BOUNDS =           0.2134
      STREAM LEAKAGE =   741855808.0000        STREAM LEAKAGE =         361.4685
       LAKE  SEEPAGE =           0.0000         LAKE  SEEPAGE =           0.0000
        UZF RECHARGE =   344835328.0000          UZF RECHARGE =          57.7455
               GW ET =           0.0000                 GW ET =           0.0000
     SURFACE LEAKAGE =           0.0000       SURFACE LEAKAGE =           0.0000

            TOTAL IN =  1128408448.0000              TOTAL IN =         424.9440

          OUT:                                     OUT:
          ----                                     ----
             STORAGE =   506305376.0000               STORAGE =         338.2252
       CONSTANT HEAD =           0.0000         CONSTANT HEAD =           0.0000
               WELLS =   220752000.0000                 WELLS =          30.0000
     HEAD DEP BOUNDS =     3671293.5000       HEAD DEP BOUNDS =           0.3359
      STREAM LEAKAGE =   229458928.0000        STREAM LEAKAGE =           0.0000
       LAKE  SEEPAGE =           0.0000         LAKE  SEEPAGE =           0.0000
        UZF RECHARGE =           0.0000          UZF RECHARGE =           0.0000
               GW ET =   157618304.0000                 GW ET =          13.6439
     SURFACE LEAKAGE =    15998410.0000       SURFACE LEAKAGE =          58.2671

           TOTAL OUT =  1133804416.0000             TOTAL OUT =         440.4721

            IN - OUT =    -5395968.0000              IN - OUT =         -15.5281

 PERCENT DISCREPANCY =          -0.48     PERCENT DISCREPANCY =          -3.59






         TIME SUMMARY AT END OF TIME STEP   12 IN STRESS PERIOD    5
                    SECONDS     MINUTES      HOURS       DAYS        YEARS
                    -----------------------------------------------------------
   TIME STEP LENGTH 1.75200E+05  2920.0      48.667      2.0278     5.55175E-03
 STRESS PERIOD TIME 2.10240E+06  35040.      584.00      24.333     6.66210E-02
         TOTAL TIME 1.26144E+07 2.10240E+05  3504.0      146.00     0.39973    
1
 
 SOLVING FOR HEAD 
                                                   Max.-Head-Change                         Max.-Flux-Residual
  Residual-Control   Outer-Iter.   Inner-Iter.     Column Row Layer    Maximum-Head-Change  Column Row Layer    Maximum-Flux-Residual          L2-NORM 
          0                 1           2             2    2     2       0.1434899065E+01       2    2    2         0.3865890208E+02      0.7350367499E+02
          0                 2           2             2    2     2      -0.1372355372E+00       6   13    2        -0.4074661635E+01      0.7745250558E+01
          0                 3           2             5   13     2       0.1377398188E+00       6   13    2         0.2874481478E+01      0.6491919458E+01
          0                 4           2             5   13     2      -0.1023743276E-01       5   13    2        -0.2054295995E+00      0.4180204603E+00
          0                 5           1             5   13     2       0.4338020900E-03       5   13    2         0.9277459496E-02      0.1452607447E-01

    ------------------------------------------------
       NWT REQUIRED            5 OUTER ITERATIONS 
       AND A TOTAL OF          9 INNER ITERATIONS.
    ------------------------------------------------

 OUTPUT CONTROL FOR STRESS PERIOD    5   TIME STEP   13
    PRINT BUDGET
    SAVE BUDGET

            WELLS   PERIOD    5   STEP  13
 WELL      1   LAYER   2   ROW     6   COL     4   RATE    -3.00000    
 WELL      2   LAYER   2   ROW     6   COL     5   RATE    -3.00000    
 WELL      3   LAYER   2   ROW     7   COL     4   RATE    -3.00000    
 WELL      4   LAYER   2   ROW     7   COL     5   RATE    -3.00000    
 WELL      5   LAYER   2   ROW     8   COL     4   RATE    -3.00000    
 WELL      6   LAYER   2   ROW     8   COL     5   RATE    -3.00000    
 WELL      7   LAYER   2   ROW     9   COL     4   RATE    -3.00000    
 WELL      8   LAYER   2   ROW     9   COL     5   RATE    -3.00000    
 WELL      9   LAYER   2   ROW    10   COL     4   RATE    -3.00000    
 WELL     10   LAYER   2   ROW    10   COL     5   RATE    -3.00000    

  HEAD DEP BOUNDS   PERIOD    5   STEP    13
 BOUNDARY      1   LAYER   2   ROW    13   COL     1   RATE   -0.342384    
 BOUNDARY      2   LAYER   2   ROW    14   COL     9   RATE    0.213431    



 STREAM LISTING     PERIOD      5   STEP       13

 LAYER ROW COL. STREAM  RCH.  FLOW INTO     FLOW TO   FLOW OUT OF   OVRLND.     DIRECT     STREAM       STREAM     STREAM     STREAM   STREAMBED  STREAMBED
                SEG.NO.  NO.  STRM. RCH.    AQUIFER    STRM. RCH.    RUNOFF     PRECIP       ET          HEAD       DEPTH      WIDTH   CONDCTNC.   GRADIENT

   2    1    1     1     1    2.5200E+03  1.9412E+01   2.5006E+03  0.000E+00  0.000E+00  0.000E+00  1.09903E+03  5.981E+00  7.392E+01  3.327E+00  1.945E+00
   2    2    2     1     2    2.5006E+03  4.6096E+01   2.4545E+03  0.000E+00  0.000E+00  0.000E+00  1.09401E+03  5.952E+00  7.356E+01  5.149E+00  2.984E+00
   2    3    3     1     3    2.4545E+03  3.9086E+01   2.4154E+03  0.000E+00  0.000E+00  0.000E+00  1.08833E+03  5.914E+00  7.308E+01  4.385E+00  2.971E+00
   2    3    4     1     4    2.4154E+03  3.5807E+01   2.3796E+03  0.000E+00  0.000E+00  0.000E+00  1.08329E+03  5.880E+00  7.266E+01  4.032E+00  2.960E+00
   2    4    5     2     1    2.2406E+03  0.0000E+00   2.2406E+03  0.000E+00  0.000E+00  0.000E+00  1.08982E+03  1.788E+01  1.200E+01  7.800E-01  6.961E+00
   2    5    6     2     2    2.2406E+03  1.2488E+01   2.2281E+03  0.000E+00  0.000E+00  0.000E+00  1.08432E+03  1.781E+01  1.200E+01  6.000E-01  6.938E+00
   2    6    6     2     3    2.2281E+03  1.2452E+01   2.2157E+03  0.000E+00  0.000E+00  0.000E+00  1.07955E+03  1.775E+01  1.200E+01  6.000E-01  6.918E+00
   2    7    6     2     4    2.2157E+03  1.2415E+01   2.2033E+03  0.000E+00  0.000E+00  0.000E+00  1.07477E+03  1.769E+01  1.200E+01  6.000E-01  6.897E+00
   2    8    6     2     5    2.2033E+03  1.2379E+01   2.1909E+03  0.000E+00  0.000E+00  0.000E+00  1.06999E+03  1.763E+01  1.200E+01  6.000E-01  6.877E+00
   2    3    5     3     1    1.0000E+01  2.8252E+00   7.1748E+00  0.000E+00  0.000E+00  0.000E+00  1.07555E+03  1.909E+00  9.636E+00  7.227E-01  1.955E+00
   2    3    6     3     2    7.1748E+00  2.4905E+00   4.6843E+00  0.000E+00  0.000E+00  0.000E+00  1.07264E+03  1.727E+00  8.909E+00  6.682E-01  1.864E+00
   2    3    7     3     3    4.6843E+00  1.9718E+00   2.7125E+00  0.000E+00  0.000E+00  0.000E+00  1.06987E+03  1.555E+00  8.218E+00  5.547E-01  1.777E+00
   2    4    8     3     4    2.7125E+00  2.2567E+00   4.5579E-01  0.000E+00  0.000E+00  0.000E+00  1.06682E+03  1.364E+00  7.455E+00  6.709E-01  1.682E+00
   2    5    8     3     5    4.5579E-01  4.5579E-01   0.0000E+00  0.000E+00  0.000E+00  0.000E+00  1.06362E+03  0.000E+00  6.655E+00  4.991E-01  1.582E+00
   2    6    8     3     6    0.0000E+00  0.0000E+00   0.0000E+00  0.000E+00  0.000E+00  0.000E+00  1.06055E+03  0.000E+00  6.145E+00  1.844E-01  1.000E+00
   2    5   10     4     1    1.0000E+01  9.0525E-01   9.0947E+00  0.000E+00  0.000E+00  0.000E+00  1.07835E+03  6.210E-01  1.000E+01  2.500E-01  1.207E+00
   2    5    9     4     2    9.0947E+00  1.7835E+00   7.3113E+00  0.000E+00  0.000E+00  0.000E+00  1.07148E+03  5.670E-01  1.000E+01  5.000E-01  1.189E+00
   2    6    8     4     3    7.3113E+00  1.2257E+00   6.0855E+00  0.000E+00  0.000E+00  0.000E+00  1.06368E+03  5.021E-01  1.000E+01  3.500E-01  1.167E+00
   2    6    8     5     1    6.0855E+00  1.4716E+00   4.6139E+00  0.000E+00  0.000E+00  0.000E+00  1.05854E+03  5.396E-01  1.039E+01  4.158E-01  1.180E+00
   2    7    7     5     2    4.6139E+00  1.4897E+00   3.1242E+00  0.000E+00  0.000E+00  0.000E+00  1.05398E+03  4.817E-01  8.557E+00  4.279E-01  1.161E+00
   2    8    7     5     3    3.1242E+00  8.2855E-01   2.2957E+00  0.000E+00  0.000E+00  0.000E+00  1.04968E+03  4.253E-01  6.911E+00  2.419E-01  1.142E+00
   2    8    6     5     4    2.2957E+00  4.9455E-01   1.8011E+00  0.000E+00  0.000E+00  0.000E+00  1.04664E+03  3.856E-01  5.843E+00  1.461E-01  1.129E+00
   2    9    6     6     1    2.1927E+03  1.2466E+01   2.1802E+03  0.000E+00  0.000E+00  0.000E+00  1.06050E+03  1.778E+01  1.200E+01  6.000E-01  6.926E+00
   2   10    7     6     2    2.1802E+03  1.2430E+01   2.1678E+03  0.000E+00  0.000E+00  0.000E+00  1.05590E+03  1.772E+01  1.200E+01  6.000E-01  6.905E+00
   2   11    7     6     3    2.1678E+03  1.2393E+01   2.1554E+03  0.000E+00  0.000E+00  0.000E+00  1.05129E+03  1.765E+01  1.200E+01  6.000E-01  6.885E+00
   2   12    7     6     4    2.1554E+03  1.0692E+01   2.1447E+03  0.000E+00  0.000E+00  0.000E+00  1.04669E+03  1.760E+01  1.200E+01  6.000E-01  5.940E+00
   2   13    7     6     5    2.1447E+03  3.3271E+00   2.1414E+03  0.000E+00  0.000E+00  0.000E+00  1.04347E+03  1.756E+01  1.200E+01  2.400E-01  4.621E+00
   2   14    9     7     1    1.5000E+02  2.6916E+00   1.4731E+02  0.000E+00  0.000E+00  0.000E+00  1.03986E+03  2.284E+00  5.528E+01  5.591E+00  1.605E-01
   2   13    8     7     2    1.4731E+02  3.6201E+00   1.4369E+02  0.000E+00  0.000E+00  0.000E+00  1.03477E+03  2.267E+00  5.520E+01  6.141E+00  1.965E-01
   2   13    7     7     3    1.4369E+02  3.7102E-01   1.4332E+02  0.000E+00  0.000E+00  0.000E+00  1.02968E+03  2.257E+00  5.515E+01  5.578E+00  2.217E-02
   2   13    6     8     1    2.2847E+03  2.2267E+01   2.2754E+03  1.299E+01  0.000E+00  0.000E+00  1.02979E+03  7.920E+00  7.455E+01  7.742E+00  9.587E-01
   2   13    5     8     2    2.2754E+03  1.8795E+01   2.2696E+03  1.299E+01  0.000E+00  0.000E+00  1.02353E+03  7.908E+00  7.450E+01  7.737E+00  8.098E-01
   2   13    4     8     3    2.2696E+03  1.6928E+01   2.2657E+03  1.299E+01  0.000E+00  0.000E+00  1.01728E+03  7.901E+00  7.447E+01  7.733E+00  7.297E-01
   2   13    3     8     4    2.2657E+03  1.6545E+01   2.2621E+03  1.299E+01  0.000E+00  0.000E+00  1.01102E+03  7.895E+00  7.445E+01  7.730E+00  7.134E-01
   2   13    2     8     5    2.2621E+03  1.3632E+01   2.2615E+03  1.299E+01  0.000E+00  0.000E+00  1.00477E+03  7.892E+00  7.443E+01  7.729E+00  5.879E-01
   2   13    1     8     6    2.2615E+03  1.2760E+01   2.2565E+03  7.792E+00  0.000E+00  0.000E+00  9.99762E+02  7.887E+00  7.441E+01  4.636E+00  9.174E-01
   2    4    5     9     1    3.6960E+02  0.0000E+00   3.6960E+02  0.000E+00  0.000E+00  0.000E+00  1.06045E+03  4.495E-01  2.000E+01  2.000E-03  1.150E+00
   2    4    5    10     1    2.4063E+02  0.0000E+00   2.4063E+02  0.000E+00  0.000E+00  0.000E+00  1.08050E+03  4.987E-01  2.000E+01  2.000E-03  1.166E+00





     0  LAKE CELLS ARE DRY.

 PERIOD     5     TIME STEP    13     TIME STEP LENGTH  1.7520E+05
 PERIOD TIME  2.2776E+06     TOTAL SIMULATION TIME  1.2790E+07


                 HYDROLOGIC BUDGET SUMMARIES FOR SIMULATED LAKES
     (ALL FLUID FLUXES ARE VOLUMES ADDED TO THE LAKE DURING PRESENT TIME STEP)
     ----------------------------------------------------------------------------------------
 LAKE    STAGE         VOLUME     VOL. CHANGE      PRECIP     EVAPORATION    SPECIFIED RUNOFF     COMPUTED RUNOFF    TOTAL RUNOFF
   1  1.083499E+03  1.071668E+08  7.683768E+06  0.000000E+00  1.661480E+05   0.000000E+00          0.000000E+00      0.000000E+00

            GROUND WATER            SURFACE WATER        WATER          UZF INFIL.
 LAKE    INFLOW     OUTFLOW      INFLOW     OUTFLOW       USE        FROM LAKE
   1  0.0000E+00  0.0000E+00  6.4754E+07  4.2158E+07  0.0000E+00       1.4745E+07

      CONNECTED LAKE   TIME-STEP         STAGE-CHANGE          PERCENT
 LAKE    INFLUX      SURFACE AREA   TIME STEP  CUMULATIVE    DISCREPANCY
   1   0.0000E+00     2.3708E+07   3.3528E-01  8.9986E+00       0.002
 --------------------------------------------------------------------------------



            CUMULATIVE HYDROLOGIC BUDGET SUMMARIES FOR SIMULATED LAKES
     (ALL FLUID FLUXES ARE SUMS OF VOLUMES ADDED TO THE LAKE SINCE INITIAL TIME)
     ---------------------------------------------------------------------------
 LAKE       PRECIP       EVAP     SPECIFIED RUNOFF   COMPUTED RUNOFF   TOTAL RUNOFF
   1     0.0000E+00  4.4493E+05       0.0000E+00       0.0000E+00       0.0000E+00

            GROUND WATER            SURFACE WATER       UZF INFIL.
 LAKE    INFLOW     OUTFLOW      INFLOW     OUTFLOW     FROM LAKE
   1  0.0000E+00  0.0000E+00  1.9325E+08  4.8782E+07    3.6852E+07

         WATER    CONNECTED LAKE   CHANGE       PERCENT
 LAKE     USE         INFLUX       IN VOL.    DISCREPANCY
   1   0.0000E+00   0.0000E+00   1.0717E+08      0.002
 --------------------------------------------------------------------------------

 UBDSV3 SAVING "           GW ET" ON UNIT  61 AT TIME STEP    13, STRESS PERIOD   5
 UBDSV3 SAVING "    UZF RECHARGE" ON UNIT  61 AT TIME STEP    13, STRESS PERIOD   5
 UBDSV3 SAVING " SURFACE LEAKAGE" ON UNIT  61 AT TIME STEP    13, STRESS PERIOD   5
 UBDSV3 SAVING "       HORT+DUNN" ON UNIT  61 AT TIME STEP    13, STRESS PERIOD   5
 UBDSV3 SAVING "  STORAGE CHANGE" ON UNIT  61 AT TIME STEP    13, STRESS PERIOD   5


UNSATURATED ZONE PACKAGE VOLUMETRIC BUDGET FOR  TIME STEP    13 STRESS PERIOD    5
  ------------------------------------------------------------------------------



     CUMULATIVE VOLUMES      L**3       RATES FOR THIS TIME STEP      L**3/T
     ------------------                 ------------------------

           IN:                                      IN:
           ---                                      ---
        INFILTRATION =   978718787.3049          INFILTRATION =         125.4916

          OUT:                                     OUT:
          ----                                     ----
              UZF ET =   889644421.7057                UZF ET =          82.7524
        UZF RECHARGE =   354163627.8227          UZF RECHARGE =          53.2435

            IN - OUT =  -265089262.2234              IN - OUT =         -10.5042

          STORAGE:                                 STORAGE:
          --------                                 --------
      STORAGE CHANGE =  -265520146.3275        STORAGE CHANGE =         -14.2988

 PERCENT DISCREPANCY IS DIFFERENCE BETWEEN IN-OUT MINUS CHANGE IN STORAGE
 DIVIDED BY THE AVERAGE OF IN AND OUT TIMES 100

 PERCENT DISCREPANCY =           0.01     PERCENT DISCREPANCY =           2.71






1
  VOLUMETRIC BUDGET FOR ENTIRE MODEL AT END OF TIME STEP   13, STRESS PERIOD   5
  ------------------------------------------------------------------------------

     CUMULATIVE VOLUMES      L**3       RATES FOR THIS TIME STEP      L**3/T
     ------------------                 ------------------------

           IN:                                      IN:
           ---                                      ---
             STORAGE =    39829568.0000               STORAGE =           4.6854
       CONSTANT HEAD =           0.0000         CONSTANT HEAD =           0.0000
               WELLS =           0.0000                 WELLS =           0.0000
     HEAD DEP BOUNDS =     2746026.7500       HEAD DEP BOUNDS =           0.2134
      STREAM LEAKAGE =   806198528.0000        STREAM LEAKAGE =         367.2529
       LAKE  SEEPAGE =           0.0000         LAKE  SEEPAGE =           0.0000
        UZF RECHARGE =   354163584.0000          UZF RECHARGE =          53.2435
               GW ET =           0.0000                 GW ET =           0.0000
     SURFACE LEAKAGE =           0.0000       SURFACE LEAKAGE =           0.0000

            TOTAL IN =  1202937728.0000              TOTAL IN =         425.3952

          OUT:                                     OUT:
          ----                                     ----
             STORAGE =   563316992.0000               STORAGE =         325.4088
       CONSTANT HEAD =           0.0000         CONSTANT HEAD =           0.0000
               WELLS =   226008000.0000                 WELLS =          30.0000
     HEAD DEP BOUNDS =     3731279.2500       HEAD DEP BOUNDS =           0.3424
      STREAM LEAKAGE =   229458928.0000        STREAM LEAKAGE =           0.0000
       LAKE  SEEPAGE =           0.0000         LAKE  SEEPAGE =           0.0000
        UZF RECHARGE =           0.0000          UZF RECHARGE =           0.0000
               GW ET =   160095152.0000                 GW ET =          14.1373
     SURFACE LEAKAGE =    28579372.0000       SURFACE LEAKAGE =          71.8092

           TOTAL OUT =  1211189632.0000             TOTAL OUT =         441.6977

            IN - OUT =    -8251904.0000              IN - OUT =         -16.3024

 PERCENT DISCREPANCY =          -0.68     PERCENT DISCREPANCY =          -3.76






         TIME SUMMARY AT END OF TIME STEP   13 IN STRESS PERIOD    5
                    SECONDS     MINUTES      HOURS       DAYS        YEARS
                    -----------------------------------------------------------
   TIME STEP LENGTH 1.75200E+05  2920.0      48.667      2.0278     5.55175E-03
 STRESS PERIOD TIME 2.27760E+06  37960.      632.67      26.361     7.21728E-02
         TOTAL TIME 1.27896E+07 2.13160E+05  3552.7      148.03     0.40528    
1
 
 SOLVING FOR HEAD 
                                                   Max.-Head-Change                         Max.-Flux-Residual
  Residual-Control   Outer-Iter.   Inner-Iter.     Column Row Layer    Maximum-Head-Change  Column Row Layer    Maximum-Flux-Residual          L2-NORM 
          0                 1           2             5    4     2       0.3123674513E+01       5    4    2         0.9187763804E+02      0.1051260309E+03
          0                 2           2             5    4     2       0.8661234751E+00       5    4    2         0.2563868847E+02      0.2632883596E+02
          0                 3           2             5    4     2       0.2164482241E+00       5    4    2         0.6406911645E+01      0.9985537198E+01
          0                 4           2             5    4     2       0.6273324271E-01       5    4    2         0.1857097896E+01      0.1878596978E+01
          0                 5           2             5    4     2       0.1818680694E-01       5    4    2         0.5383811959E+00      0.5384396644E+00
          0                 6           2             5    4     2       0.5272658925E-02       5    4    2         0.1560888800E+00      0.1560961284E+00
          0                 7           2             5    4     2       0.1528675832E-02       5    4    2         0.4525413661E-01      0.4525623427E-01
          0                 8           1             5    4     2       0.4431873936E-03       5    4    2         0.1311990789E-01      0.1312051536E-01

    ------------------------------------------------
       NWT REQUIRED            8 OUTER ITERATIONS 
       AND A TOTAL OF         15 INNER ITERATIONS.
    ------------------------------------------------

 OUTPUT CONTROL FOR STRESS PERIOD    5   TIME STEP   14
    PRINT BUDGET
    SAVE BUDGET

            WELLS   PERIOD    5   STEP  14
 WELL      1   LAYER   2   ROW     6   COL     4   RATE    -3.00000    
 WELL      2   LAYER   2   ROW     6   COL     5   RATE    -3.00000    
 WELL      3   LAYER   2   ROW     7   COL     4   RATE    -3.00000    
 WELL      4   LAYER   2   ROW     7   COL     5   RATE    -3.00000    
 WELL      5   LAYER   2   ROW     8   COL     4   RATE    -3.00000    
 WELL      6   LAYER   2   ROW     8   COL     5   RATE    -3.00000    
 WELL      7   LAYER   2   ROW     9   COL     4   RATE    -3.00000    
 WELL      8   LAYER   2   ROW     9   COL     5   RATE    -3.00000    
 WELL      9   LAYER   2   ROW    10   COL     4   RATE    -3.00000    
 WELL     10   LAYER   2   ROW    10   COL     5   RATE    -3.00000    

  HEAD DEP BOUNDS   PERIOD    5   STEP    14
 BOUNDARY      1   LAYER   2   ROW    13   COL     1   RATE   -0.341795    
 BOUNDARY      2   LAYER   2   ROW    14   COL     9   RATE    0.213439    



 STREAM LISTING     PERIOD      5   STEP       14

 LAYER ROW COL. STREAM  RCH.  FLOW INTO     FLOW TO   FLOW OUT OF   OVRLND.     DIRECT     STREAM       STREAM     STREAM     STREAM   STREAMBED  STREAMBED
                SEG.NO.  NO.  STRM. RCH.    AQUIFER    STRM. RCH.    RUNOFF     PRECIP       ET          HEAD       DEPTH      WIDTH   CONDCTNC.   GRADIENT

   2    1    1     1     1    1.6471E+03  1.3072E+01   1.6341E+03  0.000E+00  0.000E+00  0.000E+00  1.09815E+03  5.105E+00  6.300E+01  2.835E+00  1.537E+00
   2    2    2     1     2    1.6341E+03  3.4231E+01   1.5998E+03  0.000E+00  0.000E+00  0.000E+00  1.09314E+03  5.077E+00  6.265E+01  4.386E+00  2.602E+00
   2    3    3     1     3    1.5998E+03  2.9995E+01   1.5698E+03  0.000E+00  0.000E+00  0.000E+00  1.08746E+03  5.039E+00  6.218E+01  3.731E+00  2.680E+00
   2    3    4     1     4    1.5698E+03  2.7438E+01   1.5424E+03  0.000E+00  0.000E+00  0.000E+00  1.08241E+03  5.005E+00  6.176E+01  3.428E+00  2.668E+00
   2    4    5     2     1    1.5324E+03  0.0000E+00   1.5324E+03  0.000E+00  0.000E+00  0.000E+00  1.08616E+03  1.423E+01  1.200E+01  7.800E-01  5.744E+00
   2    5    6     2     2    1.5324E+03  1.0298E+01   1.5221E+03  0.000E+00  0.000E+00  0.000E+00  1.08067E+03  1.416E+01  1.200E+01  6.000E-01  5.721E+00
   2    6    6     2     3    1.5221E+03  1.0264E+01   1.5118E+03  0.000E+00  0.000E+00  0.000E+00  1.07590E+03  1.411E+01  1.200E+01  6.000E-01  5.702E+00
   2    7    6     2     4    1.5118E+03  1.0229E+01   1.5016E+03  0.000E+00  0.000E+00  0.000E+00  1.07112E+03  1.405E+01  1.200E+01  6.000E-01  5.683E+00
   2    8    6     2     5    1.5016E+03  1.0194E+01   1.4914E+03  0.000E+00  0.000E+00  0.000E+00  1.06635E+03  1.399E+01  1.200E+01  6.000E-01  5.664E+00
   2    3    5     3     1    1.0000E+01  2.8252E+00   7.1748E+00  0.000E+00  0.000E+00  0.000E+00  1.07555E+03  1.909E+00  9.636E+00  7.227E-01  1.955E+00
   2    3    6     3     2    7.1748E+00  2.4905E+00   4.6843E+00  0.000E+00  0.000E+00  0.000E+00  1.07264E+03  1.727E+00  8.909E+00  6.682E-01  1.864E+00
   2    3    7     3     3    4.6843E+00  1.9718E+00   2.7125E+00  0.000E+00  0.000E+00  0.000E+00  1.06987E+03  1.555E+00  8.218E+00  5.547E-01  1.777E+00
   2    4    8     3     4    2.7125E+00  2.2567E+00   4.5579E-01  0.000E+00  0.000E+00  0.000E+00  1.06682E+03  1.364E+00  7.455E+00  6.709E-01  1.682E+00
   2    5    8     3     5    4.5579E-01  4.5579E-01   0.0000E+00  0.000E+00  0.000E+00  0.000E+00  1.06362E+03  0.000E+00  6.655E+00  4.991E-01  1.582E+00
   2    6    8     3     6    0.0000E+00  0.0000E+00   0.0000E+00  0.000E+00  0.000E+00  0.000E+00  1.06055E+03  0.000E+00  6.145E+00  1.844E-01  1.000E+00
   2    5   10     4     1    1.0000E+01  9.0525E-01   9.0947E+00  0.000E+00  0.000E+00  0.000E+00  1.07835E+03  6.210E-01  1.000E+01  2.500E-01  1.207E+00
   2    5    9     4     2    9.0947E+00  1.7835E+00   7.3113E+00  0.000E+00  0.000E+00  0.000E+00  1.07148E+03  5.670E-01  1.000E+01  5.000E-01  1.189E+00
   2    6    8     4     3    7.3113E+00  1.2257E+00   6.0855E+00  0.000E+00  0.000E+00  0.000E+00  1.06368E+03  5.021E-01  1.000E+01  3.500E-01  1.167E+00
   2    6    8     5     1    6.0855E+00  1.4716E+00   4.6139E+00  0.000E+00  0.000E+00  0.000E+00  1.05854E+03  5.396E-01  1.039E+01  4.158E-01  1.180E+00
   2    7    7     5     2    4.6139E+00  1.4897E+00   3.1242E+00  0.000E+00  0.000E+00  0.000E+00  1.05398E+03  4.817E-01  8.557E+00  4.279E-01  1.161E+00
   2    8    7     5     3    3.1242E+00  8.2855E-01   2.2957E+00  0.000E+00  0.000E+00  0.000E+00  1.04968E+03  4.253E-01  6.911E+00  2.419E-01  1.142E+00
   2    8    6     5     4    2.2957E+00  4.9455E-01   1.8011E+00  0.000E+00  0.000E+00  0.000E+00  1.04664E+03  3.856E-01  5.843E+00  1.461E-01  1.129E+00
   2    9    6     6     1    1.4932E+03  1.0259E+01   1.4829E+03  0.000E+00  0.000E+00  0.000E+00  1.05683E+03  1.410E+01  1.200E+01  6.000E-01  5.700E+00
   2   10    7     6     2    1.4829E+03  1.0224E+01   1.4727E+03  0.000E+00  0.000E+00  0.000E+00  1.05222E+03  1.404E+01  1.200E+01  6.000E-01  5.680E+00
   2   11    7     6     3    1.4727E+03  1.0189E+01   1.4625E+03  0.000E+00  0.000E+00  0.000E+00  1.04762E+03  1.398E+01  1.200E+01  6.000E-01  5.660E+00
   2   12    7     6     4    1.4625E+03  8.3531E+00   1.4542E+03  0.000E+00  0.000E+00  0.000E+00  1.04302E+03  1.393E+01  1.200E+01  6.000E-01  4.641E+00
   2   13    7     6     5    1.4542E+03  2.4285E+00   1.4517E+03  0.000E+00  0.000E+00  0.000E+00  1.03981E+03  1.390E+01  1.200E+01  2.400E-01  3.373E+00
   2   14    9     7     1    1.5000E+02  2.6928E+00   1.4731E+02  0.000E+00  0.000E+00  0.000E+00  1.03986E+03  2.284E+00  5.528E+01  5.591E+00  1.605E-01
   2   13    8     7     2    1.4731E+02  3.5871E+00   1.4372E+02  0.000E+00  0.000E+00  0.000E+00  1.03477E+03  2.267E+00  5.520E+01  6.141E+00  1.947E-01
   2   13    7     7     3    1.4372E+02 -5.2704E-02   1.4377E+02  0.000E+00  0.000E+00  0.000E+00  1.02968E+03  2.258E+00  5.516E+01  5.578E+00 -3.149E-03
   2   13    6     8     1    1.5955E+03  1.2099E+01   1.5936E+03  1.019E+01  0.000E+00  0.000E+00  1.02867E+03  6.795E+00  6.980E+01  7.216E+00  5.589E-01
   2   13    5     8     2    1.5936E+03  1.2648E+01   1.5912E+03  1.019E+01  0.000E+00  0.000E+00  1.02242E+03  6.791E+00  6.978E+01  7.214E+00  5.844E-01
   2   13    4     8     3    1.5912E+03  1.0834E+01   1.5905E+03  1.019E+01  0.000E+00  0.000E+00  1.01616E+03  6.788E+00  6.977E+01  7.213E+00  5.007E-01
   2   13    3     8     4    1.5905E+03  1.0082E+01   1.5906E+03  1.019E+01  0.000E+00  0.000E+00  1.00991E+03  6.787E+00  6.977E+01  7.213E+00  4.659E-01
   2   13    2     8     5    1.5906E+03  3.6116E+00   1.5972E+03  1.019E+01  0.000E+00  0.000E+00  1.00367E+03  6.793E+00  6.979E+01  7.216E+00  1.668E-01
   2   13    1     8     6    1.5972E+03  7.2697E+00   1.5961E+03  6.115E+00  0.000E+00  0.000E+00  9.98673E+02  6.798E+00  6.981E+01  4.331E+00  5.595E-01
   2    4    5     9     1    0.0000E+00  0.0000E+00   0.0000E+00  0.000E+00  0.000E+00  0.000E+00  1.06000E+03  9.782E-05  2.000E+01  2.000E-03 -9.714E-02
   2    4    5    10     1    0.0000E+00  0.0000E+00   0.0000E+00  0.000E+00  0.000E+00  0.000E+00  1.08000E+03  0.000E+00  2.000E+01  2.000E-03  1.000E+00





     0  LAKE CELLS ARE DRY.

 PERIOD     5     TIME STEP    14     TIME STEP LENGTH  1.7520E+05
 PERIOD TIME  2.4528E+06     TOTAL SIMULATION TIME  1.2965E+07


                 HYDROLOGIC BUDGET SUMMARIES FOR SIMULATED LAKES
     (ALL FLUID FLUXES ARE VOLUMES ADDED TO THE LAKE DURING PRESENT TIME STEP)
     ----------------------------------------------------------------------------------------
 LAKE    STAGE         VOLUME     VOL. CHANGE      PRECIP     EVAPORATION    SPECIFIED RUNOFF     COMPUTED RUNOFF    TOTAL RUNOFF
   1  1.082873E+03  9.298337E+07 -1.418342E+07  0.000000E+00  1.544597E+05   0.000000E+00          0.000000E+00      0.000000E+00

            GROUND WATER            SURFACE WATER        WATER          UZF INFIL.
 LAKE    INFLOW     OUTFLOW      INFLOW     OUTFLOW       USE        FROM LAKE
   1  0.0000E+00  0.0000E+00  0.0000E+00  0.0000E+00  0.0000E+00       1.4029E+07

      CONNECTED LAKE   TIME-STEP         STAGE-CHANGE          PERCENT
 LAKE    INFLUX      SURFACE AREA   TIME STEP  CUMULATIVE    DISCREPANCY
   1   0.0000E+00     2.2040E+07  -6.2584E-01  8.3728E+00      -0.001
 --------------------------------------------------------------------------------



            CUMULATIVE HYDROLOGIC BUDGET SUMMARIES FOR SIMULATED LAKES
     (ALL FLUID FLUXES ARE SUMS OF VOLUMES ADDED TO THE LAKE SINCE INITIAL TIME)
     ---------------------------------------------------------------------------
 LAKE       PRECIP       EVAP     SPECIFIED RUNOFF   COMPUTED RUNOFF   TOTAL RUNOFF
   1     0.0000E+00  5.9939E+05       0.0000E+00       0.0000E+00       0.0000E+00

            GROUND WATER            SURFACE WATER       UZF INFIL.
 LAKE    INFLOW     OUTFLOW      INFLOW     OUTFLOW     FROM LAKE
   1  0.0000E+00  0.0000E+00  1.9325E+08  4.8782E+07    5.0881E+07

         WATER    CONNECTED LAKE   CHANGE       PERCENT
 LAKE     USE         INFLUX       IN VOL.    DISCREPANCY
   1   0.0000E+00   0.0000E+00   9.2983E+07      0.002
 --------------------------------------------------------------------------------

 UBDSV3 SAVING "           GW ET" ON UNIT  61 AT TIME STEP    14, STRESS PERIOD   5
 UBDSV3 SAVING "    UZF RECHARGE" ON UNIT  61 AT TIME STEP    14, STRESS PERIOD   5
 UBDSV3 SAVING " SURFACE LEAKAGE" ON UNIT  61 AT TIME STEP    14, STRESS PERIOD   5
 UBDSV3 SAVING "       HORT+DUNN" ON UNIT  61 AT TIME STEP    14, STRESS PERIOD   5
 UBDSV3 SAVING "  STORAGE CHANGE" ON UNIT  61 AT TIME STEP    14, STRESS PERIOD   5


UNSATURATED ZONE PACKAGE VOLUMETRIC BUDGET FOR  TIME STEP    14 STRESS PERIOD    5
  ------------------------------------------------------------------------------



     CUMULATIVE VOLUMES      L**3       RATES FOR THIS TIME STEP      L**3/T
     ------------------                 ------------------------

           IN:                                      IN:
           ---                                      ---
        INFILTRATION =   999986233.4553          INFILTRATION =         121.3895

          OUT:                                     OUT:
          ----                                     ----
              UZF ET =   903956965.5982                UZF ET =          81.6926
        UZF RECHARGE =   385845828.4052          UZF RECHARGE =         180.8345

            IN - OUT =  -289816560.5481              IN - OUT =        -141.1375

          STORAGE:                                 STORAGE:
          --------                                 --------
      STORAGE CHANGE =  -290113075.6075        STORAGE CHANGE =        -140.3706

 PERCENT DISCREPANCY IS DIFFERENCE BETWEEN IN-OUT MINUS CHANGE IN STORAGE
 DIVIDED BY THE AVERAGE OF IN AND OUT TIMES 100

 PERCENT DISCREPANCY =           0.01     PERCENT DISCREPANCY =          -0.29






1
  VOLUMETRIC BUDGET FOR ENTIRE MODEL AT END OF TIME STEP   14, STRESS PERIOD   5
  ------------------------------------------------------------------------------

     CUMULATIVE VOLUMES      L**3       RATES FOR THIS TIME STEP      L**3/T
     ------------------                 ------------------------

           IN:                                      IN:
           ---                                      ---
             STORAGE =    40536720.0000               STORAGE =           4.0362
       CONSTANT HEAD =           0.0000         CONSTANT HEAD =           0.0000
               WELLS =           0.0000                 WELLS =           0.0000
     HEAD DEP BOUNDS =     2783421.2500       HEAD DEP BOUNDS =           0.2134
      STREAM LEAKAGE =   853186944.0000        STREAM LEAKAGE =         268.1985
       LAKE  SEEPAGE =           0.0000         LAKE  SEEPAGE =           0.0000
        UZF RECHARGE =   385845760.0000          UZF RECHARGE =         180.8344
               GW ET =           0.0000                 GW ET =           0.0000
     SURFACE LEAKAGE =           0.0000       SURFACE LEAKAGE =           0.0000

            TOTAL IN =  1282352896.0000              TOTAL IN =         453.2827

          OUT:                                     OUT:
          ----                                     ----
             STORAGE =   627384256.0000               STORAGE =         365.6806
       CONSTANT HEAD =           0.0000         CONSTANT HEAD =           0.0000
               WELLS =   231264000.0000                 WELLS =          30.0000
     HEAD DEP BOUNDS =     3791161.7500       HEAD DEP BOUNDS =           0.3418
      STREAM LEAKAGE =   229468160.0000        STREAM LEAKAGE =       5.2704E-02
       LAKE  SEEPAGE =           0.0000         LAKE  SEEPAGE =           0.0000
        UZF RECHARGE =           0.0000          UZF RECHARGE =           0.0000
               GW ET =   162635840.0000                 GW ET =          14.5016
     SURFACE LEAKAGE =    38415340.0000       SURFACE LEAKAGE =          56.1414

           TOTAL OUT =  1292958720.0000             TOTAL OUT =         466.7180

            IN - OUT =   -10605824.0000              IN - OUT =         -13.4354

 PERCENT DISCREPANCY =          -0.82     PERCENT DISCREPANCY =          -2.92






         TIME SUMMARY AT END OF TIME STEP   14 IN STRESS PERIOD    5
                    SECONDS     MINUTES      HOURS       DAYS        YEARS
                    -----------------------------------------------------------
   TIME STEP LENGTH 1.75200E+05  2920.0      48.667      2.0278     5.55175E-03
 STRESS PERIOD TIME 2.45280E+06  40880.      681.33      28.389     7.77245E-02
         TOTAL TIME 1.29648E+07 2.16080E+05  3601.3      150.06     0.41083    
1
 
 SOLVING FOR HEAD 
                                                   Max.-Head-Change                         Max.-Flux-Residual
  Residual-Control   Outer-Iter.   Inner-Iter.     Column Row Layer    Maximum-Head-Change  Column Row Layer    Maximum-Flux-Residual          L2-NORM 
          0                 1           2             5    4     2       0.2113874664E+01       5    4    2         0.6165268499E+02      0.7745159127E+02
          0                 2           2             5    4     2       0.5136089251E+00       5   13    2         0.1696524034E+02      0.3111495013E+02
          0                 3           2             5    4     2       0.1414931742E+00       5    4    2         0.4191444689E+01      0.6946278856E+01
          0                 4           2             5    4     2       0.3901136337E-01       5    4    2         0.1156533361E+01      0.1158320151E+01
          0                 5           2             5    4     2       0.1075530985E-01       5    4    2         0.3188165104E+00      0.3188346104E+00
          0                 6           2             5    4     2       0.2965334869E-02       5    4    2         0.8790343094E-01      0.8790783812E-01
          0                 7           1             5    4     2       0.8175457740E-03       5    4    2         0.2423497687E-01      0.2423620687E-01

    ------------------------------------------------
       NWT REQUIRED            7 OUTER ITERATIONS 
       AND A TOTAL OF         13 INNER ITERATIONS.
    ------------------------------------------------

 OUTPUT CONTROL FOR STRESS PERIOD    5   TIME STEP   15
    PRINT BUDGET
    PRINT HEAD FOR ALL LAYERS
    SAVE HEAD FOR ALL LAYERS
    SAVE BUDGET

            WELLS   PERIOD    5   STEP  15
 WELL      1   LAYER   2   ROW     6   COL     4   RATE    -3.00000    
 WELL      2   LAYER   2   ROW     6   COL     5   RATE    -3.00000    
 WELL      3   LAYER   2   ROW     7   COL     4   RATE    -3.00000    
 WELL      4   LAYER   2   ROW     7   COL     5   RATE    -3.00000    
 WELL      5   LAYER   2   ROW     8   COL     4   RATE    -3.00000    
 WELL      6   LAYER   2   ROW     8   COL     5   RATE    -3.00000    
 WELL      7   LAYER   2   ROW     9   COL     4   RATE    -3.00000    
 WELL      8   LAYER   2   ROW     9   COL     5   RATE    -3.00000    
 WELL      9   LAYER   2   ROW    10   COL     4   RATE    -3.00000    
 WELL     10   LAYER   2   ROW    10   COL     5   RATE    -3.00000    

  HEAD DEP BOUNDS   PERIOD    5   STEP    15
 BOUNDARY      1   LAYER   2   ROW    13   COL     1   RATE   -0.334529    
 BOUNDARY      2   LAYER   2   ROW    14   COL     9   RATE    0.213461    



 STREAM LISTING     PERIOD      5   STEP       15

 LAYER ROW COL. STREAM  RCH.  FLOW INTO     FLOW TO   FLOW OUT OF   OVRLND.     DIRECT     STREAM       STREAM     STREAM     STREAM   STREAMBED  STREAMBED
                SEG.NO.  NO.  STRM. RCH.    AQUIFER    STRM. RCH.    RUNOFF     PRECIP       ET          HEAD       DEPTH      WIDTH   CONDCTNC.   GRADIENT

   2    1    1     1     1    1.6000E+02  1.9866E+00   1.5801E+02  0.000E+00  0.000E+00  0.000E+00  1.09519E+03  2.140E+00  2.619E+01  1.179E+00  5.618E-01
   2    2    2     1     2    1.5801E+02  8.8020E+00   1.4921E+02  0.000E+00  0.000E+00  0.000E+00  1.09017E+03  2.112E+00  2.585E+01  1.810E+00  1.621E+00
   2    3    3     1     3    1.4921E+02  7.7019E+00   1.4151E+02  0.000E+00  0.000E+00  0.000E+00  1.08449E+03  2.069E+00  2.532E+01  1.519E+00  1.690E+00
   2    3    4     1     4    1.4151E+02  6.9329E+00   1.3458E+02  0.000E+00  0.000E+00  0.000E+00  1.07944E+03  2.030E+00  2.484E+01  1.378E+00  1.677E+00
   2    4    5     2     1    1.2458E+02  0.0000E+00   1.2458E+02  0.000E+00  0.000E+00  0.000E+00  1.07506E+03  3.129E+00  1.200E+01  7.800E-01  2.043E+00
   2    5    6     2     2    1.2458E+02  3.6381E+00   1.2094E+02  0.000E+00  0.000E+00  0.000E+00  1.06957E+03  3.064E+00  1.200E+01  6.000E-01  2.021E+00
   2    6    6     2     3    1.2094E+02  3.6041E+00   1.1733E+02  0.000E+00  0.000E+00  0.000E+00  1.06480E+03  3.007E+00  1.200E+01  6.000E-01  2.002E+00
   2    7    6     2     4    1.1733E+02  3.5699E+00   1.1376E+02  0.000E+00  0.000E+00  0.000E+00  1.06003E+03  2.950E+00  1.200E+01  6.000E-01  1.983E+00
   2    8    6     2     5    1.1376E+02  3.5356E+00   1.1023E+02  0.000E+00  0.000E+00  0.000E+00  1.05525E+03  2.893E+00  1.200E+01  6.000E-01  1.964E+00
   2    3    5     3     1    1.0000E+01  2.8252E+00   7.1748E+00  0.000E+00  0.000E+00  0.000E+00  1.07555E+03  1.909E+00  9.636E+00  7.227E-01  1.955E+00
   2    3    6     3     2    7.1748E+00  2.4905E+00   4.6843E+00  0.000E+00  0.000E+00  0.000E+00  1.07264E+03  1.727E+00  8.909E+00  6.682E-01  1.864E+00
   2    3    7     3     3    4.6843E+00  1.9718E+00   2.7125E+00  0.000E+00  0.000E+00  0.000E+00  1.06987E+03  1.555E+00  8.218E+00  5.547E-01  1.777E+00
   2    4    8     3     4    2.7125E+00  2.2567E+00   4.5579E-01  0.000E+00  0.000E+00  0.000E+00  1.06682E+03  1.364E+00  7.455E+00  6.709E-01  1.682E+00
   2    5    8     3     5    4.5579E-01  4.5579E-01   0.0000E+00  0.000E+00  0.000E+00  0.000E+00  1.06362E+03  0.000E+00  6.655E+00  4.991E-01  1.582E+00
   2    6    8     3     6    0.0000E+00  0.0000E+00   0.0000E+00  0.000E+00  0.000E+00  0.000E+00  1.06055E+03  0.000E+00  6.145E+00  1.844E-01  1.000E+00
   2    5   10     4     1    1.0000E+01  9.0525E-01   9.0947E+00  0.000E+00  0.000E+00  0.000E+00  1.07835E+03  6.210E-01  1.000E+01  2.500E-01  1.207E+00
   2    5    9     4     2    9.0947E+00  1.7835E+00   7.3113E+00  0.000E+00  0.000E+00  0.000E+00  1.07148E+03  5.670E-01  1.000E+01  5.000E-01  1.189E+00
   2    6    8     4     3    7.3113E+00  1.2257E+00   6.0855E+00  0.000E+00  0.000E+00  0.000E+00  1.06368E+03  5.021E-01  1.000E+01  3.500E-01  1.167E+00
   2    6    8     5     1    6.0855E+00  1.4716E+00   4.6139E+00  0.000E+00  0.000E+00  0.000E+00  1.05854E+03  5.396E-01  1.039E+01  4.158E-01  1.180E+00
   2    7    7     5     2    4.6139E+00  1.4897E+00   3.1242E+00  0.000E+00  0.000E+00  0.000E+00  1.05398E+03  4.817E-01  8.557E+00  4.279E-01  1.161E+00
   2    8    7     5     3    3.1242E+00  8.2855E-01   2.2957E+00  0.000E+00  0.000E+00  0.000E+00  1.04968E+03  4.253E-01  6.911E+00  2.419E-01  1.142E+00
   2    8    6     5     4    2.2957E+00  4.9455E-01   1.8011E+00  0.000E+00  0.000E+00  0.000E+00  1.04664E+03  3.856E-01  5.843E+00  1.461E-01  1.129E+00
   2    9    6     6     1    1.1203E+02  3.5379E+00   1.0849E+02  0.000E+00  0.000E+00  0.000E+00  1.04562E+03  2.897E+00  1.200E+01  6.000E-01  1.966E+00
   2   10    7     6     2    1.0849E+02  3.5029E+00   1.0499E+02  0.000E+00  0.000E+00  0.000E+00  1.04102E+03  2.838E+00  1.200E+01  6.000E-01  1.946E+00
   2   11    7     6     3    1.0499E+02  3.4677E+00   1.0152E+02  0.000E+00  0.000E+00  0.000E+00  1.03642E+03  2.779E+00  1.200E+01  6.000E-01  1.926E+00
   2   12    7     6     4    1.0152E+02  1.6444E+00   9.9877E+01  0.000E+00  0.000E+00  0.000E+00  1.03183E+03  2.736E+00  1.200E+01  6.000E-01  9.136E-01
   2   13    7     6     5    9.9877E+01 -2.4619E-01   1.0012E+02  0.000E+00  0.000E+00  0.000E+00  1.02863E+03  2.724E+00  1.200E+01  2.400E-01 -3.419E-01
   2   14    9     7     1    1.5000E+02  2.6960E+00   1.4730E+02  0.000E+00  0.000E+00  0.000E+00  1.03986E+03  2.284E+00  5.528E+01  5.591E+00  1.607E-01
   2   13    8     7     2    1.4730E+02  3.5649E+00   1.4374E+02  0.000E+00  0.000E+00  0.000E+00  1.03477E+03  2.267E+00  5.520E+01  6.141E+00  1.935E-01
   2   13    7     7     3    1.4374E+02  1.0047E-01   1.4364E+02  0.000E+00  0.000E+00  0.000E+00  1.02968E+03  2.258E+00  5.516E+01  5.578E+00  6.004E-03
   2   13    6     8     1    2.4376E+02 -6.4723E+00   2.5207E+02  1.834E+00  0.000E+00  0.000E+00  1.02525E+03  3.376E+00  4.895E+01  4.989E+00 -4.325E-01
   2   13    5     8     2    2.5207E+02 -4.1576E+00   2.5806E+02  1.834E+00  0.000E+00  0.000E+00  1.01904E+03  3.413E+00  4.949E+01  5.043E+00 -2.748E-01
   2   13    4     8     3    2.5806E+02 -5.5444E+00   2.6544E+02  1.834E+00  0.000E+00  0.000E+00  1.01282E+03  3.447E+00  4.998E+01  5.093E+00 -3.629E-01
   2   13    3     8     4    2.6544E+02 -6.6609E+00   2.7393E+02  1.834E+00  0.000E+00  0.000E+00  1.00661E+03  3.486E+00  5.055E+01  5.152E+00 -4.310E-01
   2   13    2     8     5    2.7393E+02 -1.2297E+01   2.8807E+02  1.834E+00  0.000E+00  0.000E+00  1.00042E+03  3.542E+00  5.135E+01  5.233E+00 -7.833E-01
   2   13    1     8     6    2.8807E+02 -4.2639E+00   2.9343E+02  1.101E+00  0.000E+00  0.000E+00  9.95463E+02  3.588E+00  5.203E+01  3.181E+00 -4.468E-01
   2    4    5     9     1    0.0000E+00  0.0000E+00   0.0000E+00  0.000E+00  0.000E+00  0.000E+00  1.06000E+03  4.055E-04  2.000E+01  2.000E-03 -1.038E+00
   2    4    5    10     1    0.0000E+00  0.0000E+00   0.0000E+00  0.000E+00  0.000E+00  0.000E+00  1.08000E+03  0.000E+00  2.000E+01  2.000E-03  1.000E+00





     0  LAKE CELLS ARE DRY.

 PERIOD     5     TIME STEP    15     TIME STEP LENGTH  1.7520E+05
 PERIOD TIME  2.6280E+06     TOTAL SIMULATION TIME  1.3140E+07


                 HYDROLOGIC BUDGET SUMMARIES FOR SIMULATED LAKES
     (ALL FLUID FLUXES ARE VOLUMES ADDED TO THE LAKE DURING PRESENT TIME STEP)
     ----------------------------------------------------------------------------------------
 LAKE    STAGE         VOLUME     VOL. CHANGE      PRECIP     EVAPORATION    SPECIFIED RUNOFF     COMPUTED RUNOFF    TOTAL RUNOFF
   1  1.082257E+03  7.983179E+07 -1.315158E+07  0.000000E+00  1.429436E+05   0.000000E+00          0.000000E+00      0.000000E+00

            GROUND WATER            SURFACE WATER        WATER          UZF INFIL.
 LAKE    INFLOW     OUTFLOW      INFLOW     OUTFLOW       USE        FROM LAKE
   1  0.0000E+00  0.0000E+00  0.0000E+00  0.0000E+00  0.0000E+00       1.3010E+07

      CONNECTED LAKE   TIME-STEP         STAGE-CHANGE          PERCENT
 LAKE    INFLUX      SURFACE AREA   TIME STEP  CUMULATIVE    DISCREPANCY
   1   0.0000E+00     2.0397E+07  -6.1536E-01  7.7574E+00      -0.008
 --------------------------------------------------------------------------------



            CUMULATIVE HYDROLOGIC BUDGET SUMMARIES FOR SIMULATED LAKES
     (ALL FLUID FLUXES ARE SUMS OF VOLUMES ADDED TO THE LAKE SINCE INITIAL TIME)
     ---------------------------------------------------------------------------
 LAKE       PRECIP       EVAP     SPECIFIED RUNOFF   COMPUTED RUNOFF   TOTAL RUNOFF
   1     0.0000E+00  7.4234E+05       0.0000E+00       0.0000E+00       0.0000E+00

            GROUND WATER            SURFACE WATER       UZF INFIL.
 LAKE    INFLOW     OUTFLOW      INFLOW     OUTFLOW     FROM LAKE
   1  0.0000E+00  0.0000E+00  1.9325E+08  4.8782E+07    6.3891E+07

         WATER    CONNECTED LAKE   CHANGE       PERCENT
 LAKE     USE         INFLUX       IN VOL.    DISCREPANCY
   1   0.0000E+00   0.0000E+00   7.9832E+07      0.001
 --------------------------------------------------------------------------------

 UBDSV3 SAVING "           GW ET" ON UNIT  61 AT TIME STEP    15, STRESS PERIOD   5
 UBDSV3 SAVING "    UZF RECHARGE" ON UNIT  61 AT TIME STEP    15, STRESS PERIOD   5
 UBDSV3 SAVING " SURFACE LEAKAGE" ON UNIT  61 AT TIME STEP    15, STRESS PERIOD   5
 UBDSV3 SAVING "       HORT+DUNN" ON UNIT  61 AT TIME STEP    15, STRESS PERIOD   5
 UBDSV3 SAVING "  STORAGE CHANGE" ON UNIT  61 AT TIME STEP    15, STRESS PERIOD   5


UNSATURATED ZONE PACKAGE VOLUMETRIC BUDGET FOR  TIME STEP    15 STRESS PERIOD    5
  ------------------------------------------------------------------------------



     CUMULATIVE VOLUMES      L**3       RATES FOR THIS TIME STEP      L**3/T
     ------------------                 ------------------------

           IN:                                      IN:
           ---                                      ---
        INFILTRATION =  1020337811.5735          INFILTRATION =         116.1620

          OUT:                                     OUT:
          ----                                     ----
              UZF ET =   918025159.1778                UZF ET =          80.2979
        UZF RECHARGE =   412797783.2965          UZF RECHARGE =         153.8354

            IN - OUT =  -310485130.9008              IN - OUT =        -117.9713

          STORAGE:                                 STORAGE:
          --------                                 --------
      STORAGE CHANGE =  -310702380.3889        STORAGE CHANGE =        -117.5189

 PERCENT DISCREPANCY IS DIFFERENCE BETWEEN IN-OUT MINUS CHANGE IN STORAGE
 DIVIDED BY THE AVERAGE OF IN AND OUT TIMES 100

 PERCENT DISCREPANCY =           0.00     PERCENT DISCREPANCY =          -0.19






1
              HEAD IN LAYER   1 AT END OF TIME STEP    15 IN STRESS PERIOD    5
  -----------------------------------------------------------------------------

           1       2       3       4       5       6       7       8       9      10
 ...................................................................................
   1  6999.00 6999.00 6999.00 6999.00 6999.00 6999.00 6999.00 6999.00 6999.00 6999.00
   2  6999.00 6999.00 6999.00 6999.00 6999.00 6999.00 6999.00 6999.00 6999.00 6999.00
   3  6999.00 6999.00 6999.00 6999.00 6999.00 6999.00 6999.00 6999.00 6999.00 6999.00
   4  6999.00 6999.00 6999.00 6999.00 1082.26 6999.00 6999.00 6999.00 6999.00 6999.00
   5  6999.00 6999.00 6999.00 6999.00 6999.00 6999.00 6999.00 6999.00 6999.00 6999.00
   6  6999.00 6999.00 6999.00 6999.00 6999.00 6999.00 6999.00 6999.00 6999.00 6999.00
   7  6999.00 6999.00 6999.00 6999.00 6999.00 6999.00 6999.00 6999.00 6999.00 6999.00
   8  6999.00 6999.00 6999.00 6999.00 6999.00 6999.00 6999.00 6999.00 6999.00 6999.00
   9  6999.00 6999.00 6999.00 6999.00 6999.00 6999.00 6999.00 6999.00 6999.00 6999.00
  10  6999.00 6999.00 6999.00 6999.00 6999.00 6999.00 6999.00 6999.00 6999.00 6999.00
  11  6999.00 6999.00 6999.00 6999.00 6999.00 6999.00 6999.00 6999.00 6999.00 6999.00
  12  6999.00 6999.00 6999.00 6999.00 6999.00 6999.00 6999.00 6999.00 6999.00 6999.00
  13  6999.00 6999.00 6999.00 6999.00 6999.00 6999.00 6999.00 6999.00 6999.00 6999.00
  14  6999.00 6999.00 6999.00 6999.00 6999.00 6999.00 6999.00 6999.00 6999.00 6999.00
  15  6999.00 6999.00 6999.00 6999.00 6999.00 6999.00 6999.00 6999.00 6999.00 6999.00
1
              HEAD IN LAYER   2 AT END OF TIME STEP    15 IN STRESS PERIOD    5
  -----------------------------------------------------------------------------

           1       2       3       4       5       6       7       8       9      10
 ...................................................................................
   1  1093.50 1085.77 6999.00 6999.00 6999.00 6999.00 6999.00 6999.00 6999.00 6999.00
   2  1085.90 1085.31 1073.54 6999.00 6999.00 1066.92 1066.70 1063.62 6999.00 6999.00
   3  6999.00 1070.36 1070.60 1066.46 1064.31 1064.73 1064.83 1063.12 6999.00 6999.00
   4  1060.56 1060.49 1059.26 1056.87 1063.11 1054.68 1055.29 1059.24 1058.01 6999.00
   5  1056.37 1053.46 1051.71 1050.03 1050.40 1051.28 1050.19 1051.73 1055.18 1057.41
   6  1052.24 1048.27 1046.39 1044.30 1044.72 1047.61 1047.53 1049.49 1052.19 1056.68
   7  1049.12 1043.44 1041.50 1039.57 1040.33 1043.73 1044.34 1046.35 1048.99 6999.00
   8  6999.00 1038.17 1036.95 1035.25 1036.13 1039.61 1040.01 1042.84 1044.51 6999.00
   9  6999.00 1032.48 1032.04 1030.82 1031.85 1035.21 1035.48 1037.18 1039.83 6999.00
  10  6999.00 1026.73 1027.03 1026.70 1027.96 1030.46 1032.91 1033.19 1035.95 1038.33
  11  6999.00 1019.62 1020.51 1023.14 1025.12 1027.51 1030.63 1031.11 1034.29 6999.00
  12  1003.10 1009.65 1013.89 1018.35 1021.98 1025.55 1029.09 1030.86 1034.59 6999.00
  13   996.80 1002.77 1007.90 1013.91 1019.86 1026.55 1029.66 1034.19 1036.73 6999.00
  14  6999.00 1006.75 1010.69 1015.52 1020.59 1025.73 1030.61 1035.20 1039.38 6999.00
  15  6999.00 6999.00 1016.37 1019.38 1023.29 1026.69 6999.00 6999.00 6999.00 6999.00

 HEAD WILL BE SAVED ON UNIT   58 AT END OF TIME STEP   15, STRESS PERIOD    5
1
  VOLUMETRIC BUDGET FOR ENTIRE MODEL AT END OF TIME STEP   15, STRESS PERIOD   5
  ------------------------------------------------------------------------------

     CUMULATIVE VOLUMES      L**3       RATES FOR THIS TIME STEP      L**3/T
     ------------------                 ------------------------

           IN:                                      IN:
           ---                                      ---
             STORAGE =    49029228.0000               STORAGE =          48.4732
       CONSTANT HEAD =           0.0000         CONSTANT HEAD =           0.0000
               WELLS =           0.0000                 WELLS =           0.0000
     HEAD DEP BOUNDS =     2820819.7500       HEAD DEP BOUNDS =           0.2135
      STREAM LEAKAGE =   866587008.0000        STREAM LEAKAGE =          76.4842
       LAKE  SEEPAGE =           0.0000         LAKE  SEEPAGE =           0.0000
        UZF RECHARGE =   412797728.0000          UZF RECHARGE =         153.8354
               GW ET =           0.0000                 GW ET =           0.0000
     SURFACE LEAKAGE =           0.0000       SURFACE LEAKAGE =           0.0000

            TOTAL IN =  1331234816.0000              TOTAL IN =         279.0063

          OUT:                                     OUT:
          ----                                     ----
             STORAGE =   660550784.0000               STORAGE =         189.3065
       CONSTANT HEAD =           0.0000         CONSTANT HEAD =           0.0000
               WELLS =   236520000.0000                 WELLS =          30.0000
     HEAD DEP BOUNDS =     3849771.2500       HEAD DEP BOUNDS =           0.3345
      STREAM LEAKAGE =   236413472.0000        STREAM LEAKAGE =          39.6421
       LAKE  SEEPAGE =           0.0000         LAKE  SEEPAGE =           0.0000
        UZF RECHARGE =           0.0000          UZF RECHARGE =           0.0000
               GW ET =   165187168.0000                 GW ET =          14.5624
     SURFACE LEAKAGE =    40154724.0000       SURFACE LEAKAGE =           9.9280

           TOTAL OUT =  1342675968.0000             TOTAL OUT =         283.7736

            IN - OUT =   -11441152.0000              IN - OUT =          -4.7673

 PERCENT DISCREPANCY =          -0.86     PERCENT DISCREPANCY =          -1.69






         TIME SUMMARY AT END OF TIME STEP   15 IN STRESS PERIOD    5
                    SECONDS     MINUTES      HOURS       DAYS        YEARS
                    -----------------------------------------------------------
   TIME STEP LENGTH 1.75200E+05  2920.0      48.667      2.0278     5.55175E-03
 STRESS PERIOD TIME 2.62800E+06  43800.      730.00      30.417     8.32763E-02
         TOTAL TIME 1.31400E+07 2.19000E+05  3650.0      152.08     0.41638    
1
1
                            STRESS PERIOD NO.    6, LENGTH =   2628000.    
                            -----------------------------------------------

                              NUMBER OF TIME STEPS =    15

                               MULTIPLIER FOR DELT =     1.000

                            INITIAL TIME STEP SIZE =   175200.0    

      0 WELLS

 REUSING NON-PARAMETER GHB CELLS FROM LAST STRESS PERIOD

      2 GHB CELLS

 REUSING STREAM SEGMENT DATA FROM LAST STRESS PERIOD



            AREAL INFILTRATION RATE
 READING ON UNIT   19 WITH FORMAT: (10F4.0)            

            1           2           3           4           5           6           7           8           9          10
 ........................................................................................................................
   1   1.0000E-08  2.0000E-08   0.000       0.000       0.000       0.000       0.000       0.000       0.000       0.000    
   2   2.0000E-08  1.0000E-08  2.0000E-08   0.000       0.000      8.0000E-08  8.0000E-08  5.0000E-08   0.000       0.000    
   3    0.000      5.0000E-08  1.0000E-08  1.0000E-08  8.0000E-08  8.0000E-08  5.0000E-08  5.0000E-08   0.000       0.000    
   4   8.0000E-08  5.0000E-08  1.0000E-08  1.0000E-08  1.0000E-08  1.0000E-08  1.0000E-08  1.0000E-08  2.0000E-08   0.000    
   5   8.0000E-08  5.0000E-08  1.0000E-08  1.0000E-08  1.0000E-08  1.0000E-08  1.0000E-08  1.0000E-08  1.0000E-08  1.0000E-08
   6   8.0000E-08  5.0000E-08  5.0000E-08  2.0000E-08  2.0000E-08  1.0000E-08  1.0000E-08  1.0000E-08  1.0000E-08  5.0000E-08
   7   8.0000E-08  5.0000E-08  5.0000E-08  2.0000E-08  2.0000E-08  1.0000E-08  1.0000E-08  2.0000E-08  2.0000E-08   0.000    
   8    0.000      5.0000E-08  5.0000E-08  2.0000E-08  2.0000E-08  1.0000E-08  1.0000E-08  2.0000E-08  5.0000E-08   0.000    
   9    0.000      5.0000E-08  5.0000E-08  2.0000E-08  2.0000E-08  1.0000E-08  1.0000E-08  2.0000E-08  5.0000E-08   0.000    
  10    0.000      5.0000E-08  5.0000E-08  2.0000E-08  2.0000E-08  1.0000E-08  1.0000E-08  2.0000E-08  5.0000E-08  8.0000E-08
  11    0.000      1.0000E-08  1.0000E-08  1.0000E-08  1.0000E-08  1.0000E-08  1.0000E-08  2.0000E-08  5.0000E-08   0.000    
  12   1.0000E-08  1.0000E-08  1.0000E-08  1.0000E-08  1.0000E-08  1.0000E-08  1.0000E-08  1.0000E-08  2.0000E-08   0.000    
  13   1.0000E-08  1.0000E-08  2.0000E-08  2.0000E-08  2.0000E-08  2.0000E-08  2.0000E-08  1.0000E-08  1.0000E-08   0.000    
  14    0.000      2.0000E-08  5.0000E-08  5.0000E-08  5.0000E-08  5.0000E-08  5.0000E-08  2.0000E-08  1.0000E-08   0.000    
  15    0.000       0.000      8.0000E-08  8.0000E-08  8.0000E-08  8.0000E-08   0.000       0.000       0.000       0.000    

USING ET RATE FROM PREVIOUS STRESS PERIOD. CURRENT PERIOD IS:       6

 USING ET EXTINCTION DEPTH FROM PREVIOUS STRESS PERIOD. CURRENT PERIOD IS:       6

 USING EXTINCTION WATER CONTENT FROM PREVIOUS STRESS PERIOD. CURRENT PERIOD IS:       6




 If any subsequent steady-state stress periods, min. and max. stages for each lake will be read in Record 9a.




 REUSING LAKE CONFIGURATION DATA FROM LAST STRESS PERIOD


 LAKE       PRECIP     EVAP     RUNOFF   WITHDRAW   BOTTOM     AREA
----------------------------------------------------------------------
   1     0.000E+00 4.000E-08 0.000E+00  0.000E+00 1.074E+03 2.500E+07




         C               INTERFACE CONDUCTANCES BETWEEN LAKE AND AQUIFER CELLS
   L     O          (IF TYPE = 6, CONDUCTANCE (L^2/T) IS BETWEEN AQUIFER CELL AND OVERLYING LAKE CELL.)
   A     L  L  T    (IF TYPE = 1 TO 4, CONDUCTANCES ARE PER UNIT SATURATED THICKNESS (L/T).)
   Y  R  U  A  Y
   E  O  M  K  P                        LAKEBED      C O N D U C T A N C E S
   R  W  N  E  E     DELTA Y   DELTA X  LEAKANCE   LAKEBED   AQUIFER  COMBINED
 _______________________________________________________________________________
   1  4  4  1  2    5.00E+03  5.00E+03  5.00E-02  2.50E+02  6.00E-03  6.00E-03
   1  3  5  1  3    5.00E+03  5.00E+03  5.00E-02  2.50E+02  1.20E-03  1.20E-03
   2  4  5  1  6    5.00E+03  5.00E+03  5.00E-02  1.25E+06  9.42E+00  9.42E+00
   1  5  5  1  4    5.00E+03  5.00E+03  5.00E-02  2.50E+02  6.00E-03  6.00E-03
   1  4  6  1  1    5.00E+03  5.00E+03  5.00E-02  2.50E+02  6.00E-03  6.00E-03
      LAKE     INFLOWING STREAM SEGMENT
         1                  9

 MAXIMUM NUMBER OF STREAMS INFLOWING TO A LAKE IS    1

      LAKE     OUTFLOWING STREAM SEGMENT
         1                 10

 MAXIMUM NUMBER OF STREAMS OUTFLOWING FROM A LAKE IS    1

 
 SOLVING FOR HEAD 
                                                   Max.-Head-Change                         Max.-Flux-Residual
  Residual-Control   Outer-Iter.   Inner-Iter.     Column Row Layer    Maximum-Head-Change  Column Row Layer    Maximum-Flux-Residual          L2-NORM 
          0                 1           2             5    4     2       0.1017758649E+01       5    4    2         0.2894136900E+02      0.4137035044E+02
          0                 2           2             5    4     2       0.7312992194E+00       5    4    2         0.2176112928E+02      0.2182151089E+02
          0                 3           2             5    4     2       0.1943919133E+00       5    4    2         0.5767814866E+01      0.5769506591E+01
          0                 4           2             5    4     2       0.5178640753E-01       5    4    2         0.1538114226E+01      0.1538174284E+01
          0                 5           2             5    4     2       0.1379527020E-01       5    4    2         0.4096723036E+00      0.4096965348E+00
          0                 6           2             5    4     2       0.3675088593E-02       5    4    2         0.1091428358E+00      0.1091487522E+00
          0                 7           1             5    4     2       0.9791355968E-03       5    4    2         0.2907820100E-01      0.2907980356E-01

    ------------------------------------------------
       NWT REQUIRED            7 OUTER ITERATIONS 
       AND A TOTAL OF         13 INNER ITERATIONS.
    ------------------------------------------------

 NO OUTPUT CONTROL FOR STRESS PERIOD    6   TIME STEP    1
 
 SOLVING FOR HEAD 
                                                   Max.-Head-Change                         Max.-Flux-Residual
  Residual-Control   Outer-Iter.   Inner-Iter.     Column Row Layer    Maximum-Head-Change  Column Row Layer    Maximum-Flux-Residual          L2-NORM 
          0                 1           2             5    4     2       0.1154381175E+01       5    4    2         0.3289946459E+02      0.4333483861E+02
          0                 2           2             5    4     2       0.1852377591E+00       5    4    2         0.5575137176E+01      0.5827540912E+01
          0                 3           2             5    4     2       0.4750580022E-01       5    4    2         0.1409406971E+01      0.1412080092E+01
          0                 4           2             5    4     2       0.1221335473E-01       5    4    2         0.3623153476E+00      0.3625513301E+00
          0                 5           2             5    4     2       0.3140311062E-02       5    4    2         0.9315722790E-01      0.9321826463E-01
          0                 6           1             5    4     2       0.8073863590E-03       5    4    2         0.2395114834E-01      0.2396683294E-01

    ------------------------------------------------
       NWT REQUIRED            6 OUTER ITERATIONS 
       AND A TOTAL OF         11 INNER ITERATIONS.
    ------------------------------------------------

 NO OUTPUT CONTROL FOR STRESS PERIOD    6   TIME STEP    2
 
 SOLVING FOR HEAD 
                                                   Max.-Head-Change                         Max.-Flux-Residual
  Residual-Control   Outer-Iter.   Inner-Iter.     Column Row Layer    Maximum-Head-Change  Column Row Layer    Maximum-Flux-Residual          L2-NORM 
          0                 1           2             5    4     2       0.7947273550E+00       5    4    2         0.2217574942E+02      0.3559013662E+02
          0                 2           2             5    4     2       0.7711225136E-01       5    4    2         0.2366555950E+01      0.2916393803E+01
          0                 3           2             5    4     2       0.1896218868E-01       5    4    2         0.5619806021E+00      0.5672992191E+00
          0                 4           2             5    4     2       0.4689000177E-02       5    4    2         0.1391347829E+00      0.1392454508E+00
          0                 5           2             5    4     2       0.1159423515E-02       5    4    2         0.3440399692E-01      0.3442879398E-01
          0                 6           1             5    4     2       0.2866850456E-03       5    4    2         0.8506983897E-02      0.8513075854E-02

    ------------------------------------------------
       NWT REQUIRED            6 OUTER ITERATIONS 
       AND A TOTAL OF         11 INNER ITERATIONS.
    ------------------------------------------------

 NO OUTPUT CONTROL FOR STRESS PERIOD    6   TIME STEP    3
 
 SOLVING FOR HEAD 
                                                   Max.-Head-Change                         Max.-Flux-Residual
  Residual-Control   Outer-Iter.   Inner-Iter.     Column Row Layer    Maximum-Head-Change  Column Row Layer    Maximum-Flux-Residual          L2-NORM 
          0                 1           2             5    4     2       0.5255141270E+00       5    4    2         0.1419583593E+02      0.2985101190E+02
          0                 2           2             5    3     2      -0.2589719858E-01       6   13    2         0.6798916526E+00      0.1566976692E+01
          0                 3           1             5    3     2       0.1285242793E-02       6   13    2        -0.3921005101E-01      0.6342699458E-01
          0                 4           1             5    4     2       0.3615291228E-04       5    4    2         0.1060785164E-02      0.1630462333E-02

    ------------------------------------------------
       NWT REQUIRED            4 OUTER ITERATIONS 
       AND A TOTAL OF          6 INNER ITERATIONS.
    ------------------------------------------------

 NO OUTPUT CONTROL FOR STRESS PERIOD    6   TIME STEP    4
 
 SOLVING FOR HEAD 
                                                   Max.-Head-Change                         Max.-Flux-Residual
  Residual-Control   Outer-Iter.   Inner-Iter.     Column Row Layer    Maximum-Head-Change  Column Row Layer    Maximum-Flux-Residual          L2-NORM 
          0                 1           2             6    4     2       0.4074176019E+00       4    4    2         0.1140388815E+02      0.2585815301E+02
          0                 2           2             5    4     2      -0.5150023488E-01       5    4    2        -0.1519901899E+01      0.2072067628E+01
          0                 3           2             5    4     2      -0.1315755317E-01       5    4    2        -0.4069774035E+00      0.4100060099E+00
          0                 4           2             5    4     2      -0.3335484923E-02       5    4    2        -0.1028857105E+00      0.1028997627E+00
          0                 5           1             5    4     2      -0.8456273084E-03       5    4    2        -0.2608255482E-01      0.2608476527E-01

    ------------------------------------------------
       NWT REQUIRED            5 OUTER ITERATIONS 
       AND A TOTAL OF          9 INNER ITERATIONS.
    ------------------------------------------------

 NO OUTPUT CONTROL FOR STRESS PERIOD    6   TIME STEP    5
 
 SOLVING FOR HEAD 
                                                   Max.-Head-Change                         Max.-Flux-Residual
  Residual-Control   Outer-Iter.   Inner-Iter.     Column Row Layer    Maximum-Head-Change  Column Row Layer    Maximum-Flux-Residual          L2-NORM 
          0                 1           2             6    4     2       0.3755848757E+00       6    4    2         0.1049207783E+02      0.2312712674E+02
          0                 2           2             5    4     2      -0.8789977092E-01       5    4    2        -0.2649027322E+01      0.2940494188E+01
          0                 3           2             5    4     2      -0.2135655691E-01       5    4    2        -0.6597031434E+00      0.6609754662E+00
          0                 4           2             5    4     2      -0.5165035273E-02       5    4    2        -0.1593097927E+00      0.1593259501E+00
          0                 5           2             5    4     2      -0.1249016189E-02       5    4    2        -0.3852391278E-01      0.3852679435E-01
          0                 6           1             5    4     2      -0.3019185712E-03       5    4    2        -0.9311258495E-02      0.9311964691E-02

    ------------------------------------------------
       NWT REQUIRED            6 OUTER ITERATIONS 
       AND A TOTAL OF         11 INNER ITERATIONS.
    ------------------------------------------------

 NO OUTPUT CONTROL FOR STRESS PERIOD    6   TIME STEP    6
 
 SOLVING FOR HEAD 
                                                   Max.-Head-Change                         Max.-Flux-Residual
  Residual-Control   Outer-Iter.   Inner-Iter.     Column Row Layer    Maximum-Head-Change  Column Row Layer    Maximum-Flux-Residual          L2-NORM 
          0                 1           2             6    4     2       0.3383550027E+00       6    4    2         0.9602476071E+01      0.2185928229E+02
          0                 2           2             5    4     2      -0.1178044655E+00       5    4    2        -0.3452004420E+01      0.3651920546E+01
          0                 3           2             5    4     2      -0.2361805761E-01       5    4    2        -0.7020218968E+00      0.7031016079E+00
          0                 4           2             5    4     2      -0.4722086535E-02       5    4    2        -0.1401791742E+00      0.1402443103E+00
          0                 5           1             5    4     2      -0.9443747738E-03       5    4    2        -0.2803542461E-01      0.2804777998E-01

    ------------------------------------------------
       NWT REQUIRED            5 OUTER ITERATIONS 
       AND A TOTAL OF          9 INNER ITERATIONS.
    ------------------------------------------------

 NO OUTPUT CONTROL FOR STRESS PERIOD    6   TIME STEP    7
 
 SOLVING FOR HEAD 
                                                   Max.-Head-Change                         Max.-Flux-Residual
  Residual-Control   Outer-Iter.   Inner-Iter.     Column Row Layer    Maximum-Head-Change  Column Row Layer    Maximum-Flux-Residual          L2-NORM 
          0                 1           2             5    3     2       0.3080924215E+00       6    4    2         0.8587293149E+01      0.2086184414E+02
          0                 2           2             5    4     2      -0.1266609441E+00       5    4    2        -0.3719829725E+01      0.3877426406E+01
          0                 3           2             5    4     2      -0.2350226608E-01       5    4    2        -0.6982289474E+00      0.6991494844E+00
          0                 4           2             5    4     2      -0.4350538990E-02       5    4    2        -0.1290973799E+00      0.1291652596E+00
          0                 5           1             5    4     2      -0.8055575405E-03       5    4    2        -0.2390459080E-01      0.2391668910E-01

    ------------------------------------------------
       NWT REQUIRED            5 OUTER ITERATIONS 
       AND A TOTAL OF          9 INNER ITERATIONS.
    ------------------------------------------------

 NO OUTPUT CONTROL FOR STRESS PERIOD    6   TIME STEP    8
 
 SOLVING FOR HEAD 
                                                   Max.-Head-Change                         Max.-Flux-Residual
  Residual-Control   Outer-Iter.   Inner-Iter.     Column Row Layer    Maximum-Head-Change  Column Row Layer    Maximum-Flux-Residual          L2-NORM 
          0                 1           2             5    3     2       0.2768892849E+00       5    4    2        -0.9104008242E+01      0.2044254446E+02
          0                 2           2             5    4     2      -0.1230660601E+00       5    4    2        -0.3616738977E+01      0.3748142769E+01
          0                 3           2             5    4     2      -0.2074724917E-01       5    4    2        -0.6160743675E+00      0.6168331540E+00
          0                 4           2             5    4     2      -0.3489494188E-02       5    4    2        -0.1034938289E+00      0.1035581736E+00
          0                 5           1             5    4     2      -0.5870928022E-03       5    4    2        -0.1741279254E-01      0.1742332443E-01

    ------------------------------------------------
       NWT REQUIRED            5 OUTER ITERATIONS 
       AND A TOTAL OF          9 INNER ITERATIONS.
    ------------------------------------------------

 NO OUTPUT CONTROL FOR STRESS PERIOD    6   TIME STEP    9
 
 SOLVING FOR HEAD 
                                                   Max.-Head-Change                         Max.-Flux-Residual
  Residual-Control   Outer-Iter.   Inner-Iter.     Column Row Layer    Maximum-Head-Change  Column Row Layer    Maximum-Flux-Residual          L2-NORM 
          0                 1           2             5    4     2      -0.2922133837E+00       5    4    2        -0.9502102369E+01      0.2316836916E+02
          0                 2           2             5    4     2      -0.9097663273E-01       5    4    2        -0.2664903760E+01      0.3039099161E+01
          0                 3           2             5    4     2      -0.1358294861E-01       5    4    2        -0.4029232648E+00      0.4087153955E+00
          0                 4           2             5    4     2      -0.2018070158E-02       5    4    2        -0.5977030970E-01      0.5983041361E-01
          0                 5           1             5    4     2      -0.3001365274E-03       5    4    2        -0.8889787982E-02      0.8896372043E-02

    ------------------------------------------------
       NWT REQUIRED            5 OUTER ITERATIONS 
       AND A TOTAL OF          9 INNER ITERATIONS.
    ------------------------------------------------

 NO OUTPUT CONTROL FOR STRESS PERIOD    6   TIME STEP   10
 
 SOLVING FOR HEAD 
                                                   Max.-Head-Change                         Max.-Flux-Residual
  Residual-Control   Outer-Iter.   Inner-Iter.     Column Row Layer    Maximum-Head-Change  Column Row Layer    Maximum-Flux-Residual          L2-NORM 
          0                 1           2             4    3     2       0.3720891803E+00       5    4    2        -0.1091508235E+02      0.2980257463E+02
          0                 2           2             5    4     2      -0.5388346209E-01       5    4    2        -0.1566544699E+01      0.2729170881E+01
          0                 3           2             5    4     2      -0.7546775786E-02       5    4    2        -0.2240063532E+00      0.2511011151E+00
          0                 4           1             5    4     2      -0.1053590849E-02       5    4    2        -0.3119105846E-01      0.3129729568E-01
          0                 5           1             5    4     2      -0.1474548669E-03       5    4    2        -0.4365937948E-02      0.4369645530E-02

    ------------------------------------------------
       NWT REQUIRED            5 OUTER ITERATIONS 
       AND A TOTAL OF          8 INNER ITERATIONS.
    ------------------------------------------------

 NO OUTPUT CONTROL FOR STRESS PERIOD    6   TIME STEP   11
 
 SOLVING FOR HEAD 
                                                   Max.-Head-Change                         Max.-Flux-Residual
  Residual-Control   Outer-Iter.   Inner-Iter.     Column Row Layer    Maximum-Head-Change  Column Row Layer    Maximum-Flux-Residual          L2-NORM 
          0                 1           2             5    4     2      -0.4332815095E+00       5    4    2        -0.1350462618E+02      0.2874606697E+02
          0                 2           2             5    4     2      -0.5267661008E-01       5    4    2        -0.1533420593E+01      0.2549252106E+01
          0                 3           2             5    4     2      -0.6637890866E-02       5    4    2        -0.1969389599E+00      0.2227079905E+00
          0                 4           1             5    4     2      -0.8274318165E-03       5    4    2        -0.2448096224E-01      0.2459000098E-01

    ------------------------------------------------
       NWT REQUIRED            4 OUTER ITERATIONS 
       AND A TOTAL OF          7 INNER ITERATIONS.
    ------------------------------------------------

 NO OUTPUT CONTROL FOR STRESS PERIOD    6   TIME STEP   12
 
 SOLVING FOR HEAD 
                                                   Max.-Head-Change                         Max.-Flux-Residual
  Residual-Control   Outer-Iter.   Inner-Iter.     Column Row Layer    Maximum-Head-Change  Column Row Layer    Maximum-Flux-Residual          L2-NORM 
          0                 1           2             5    4     2      -0.4405999525E+00       5    4    2        -0.1363415550E+02      0.2720010414E+02
          0                 2           2             5    4     2      -0.4047981160E-01       5    4    2        -0.1174838983E+01      0.2185686768E+01
          0                 3           2             5    4     2      -0.3886932222E-02       5    4    2        -0.1153371139E+00      0.1497264362E+00
          0                 4           1             5    4     2      -0.3668062785E-03       5    4    2        -0.1083839189E-01      0.1102163682E-01

    ------------------------------------------------
       NWT REQUIRED            4 OUTER ITERATIONS 
       AND A TOTAL OF          7 INNER ITERATIONS.
    ------------------------------------------------

 NO OUTPUT CONTROL FOR STRESS PERIOD    6   TIME STEP   13
 
 SOLVING FOR HEAD 
                                                   Max.-Head-Change                         Max.-Flux-Residual
  Residual-Control   Outer-Iter.   Inner-Iter.     Column Row Layer    Maximum-Head-Change  Column Row Layer    Maximum-Flux-Residual          L2-NORM 
          0                 1           2             4    3     2       0.4650244529E+00       4    3    2         0.1258546191E+02      0.3307207906E+02
          0                 2           2             4   13     2       0.8674036738E-01       4   13    2         0.2007728554E+01      0.3470395670E+01
          0                 3           2             4   13     2      -0.1105133980E-01       4   13    2        -0.2876972284E+00      0.3403002844E+00
          0                 4           1             4   13     2       0.5235059641E-03       4   13    2         0.1411118149E-01      0.1834339032E-01

    ------------------------------------------------
       NWT REQUIRED            4 OUTER ITERATIONS 
       AND A TOTAL OF          7 INNER ITERATIONS.
    ------------------------------------------------

 NO OUTPUT CONTROL FOR STRESS PERIOD    6   TIME STEP   14
 
 SOLVING FOR HEAD 
                                                   Max.-Head-Change                         Max.-Flux-Residual
  Residual-Control   Outer-Iter.   Inner-Iter.     Column Row Layer    Maximum-Head-Change  Column Row Layer    Maximum-Flux-Residual          L2-NORM 
          0                 1           2             3    3     2       0.5549626530E+00       3    3    2         0.1489448744E+02      0.3700074723E+02
          0                 2           2             5   13     2       0.9350618689E-01       5   13    2         0.2033566000E+01      0.3953306262E+01
          0                 3           2             5   13     2      -0.1220830730E-01       5   13    2        -0.2968590695E+00      0.3467667794E+00
          0                 4           1             5   13     2       0.6043916101E-03       5   13    2         0.1515826598E-01      0.1674440267E-01

    ------------------------------------------------
       NWT REQUIRED            4 OUTER ITERATIONS 
       AND A TOTAL OF          7 INNER ITERATIONS.
    ------------------------------------------------

 NO OUTPUT CONTROL FOR STRESS PERIOD    6   TIME STEP   15



 STREAM LISTING     PERIOD      6   STEP       15

 LAYER ROW COL. STREAM  RCH.  FLOW INTO     FLOW TO   FLOW OUT OF   OVRLND.     DIRECT     STREAM       STREAM     STREAM     STREAM   STREAMBED  STREAMBED
                SEG.NO.  NO.  STRM. RCH.    AQUIFER    STRM. RCH.    RUNOFF     PRECIP       ET          HEAD       DEPTH      WIDTH   CONDCTNC.   GRADIENT

   2    1    1     1     1    9.5800E+02  8.0582E+00   9.4994E+02  0.000E+00  0.000E+00  0.000E+00  1.09722E+03  4.171E+00  5.138E+01  2.312E+00  1.162E+00
   2    2    2     1     2    9.4994E+02  2.0174E+01   9.2977E+02  0.000E+00  0.000E+00  0.000E+00  1.09221E+03  4.148E+00  5.109E+01  3.576E+00  1.880E+00
   2    3    3     1     3    9.2977E+02  2.1622E+01   9.0815E+02  0.000E+00  0.000E+00  0.000E+00  1.08653E+03  4.113E+00  5.066E+01  3.040E+00  2.371E+00
   2    3    4     1     4    9.0815E+02  1.9733E+01   8.8841E+02  0.000E+00  0.000E+00  0.000E+00  1.08149E+03  4.079E+00  5.023E+01  2.788E+00  2.360E+00
   2    4    5     2     1    8.7841E+02  0.0000E+00   8.7841E+02  0.000E+00  0.000E+00  0.000E+00  1.08212E+03  1.018E+01  1.200E+01  7.800E-01  4.394E+00
   2    5    6     2     2    8.7841E+02  7.8710E+00   8.7054E+02  0.000E+00  0.000E+00  0.000E+00  1.07663E+03  1.012E+01  1.200E+01  6.000E-01  4.373E+00
   2    6    6     2     3    8.7054E+02  7.8379E+00   8.6270E+02  0.000E+00  0.000E+00  0.000E+00  1.07186E+03  1.006E+01  1.200E+01  6.000E-01  4.354E+00
   2    7    6     2     4    8.6270E+02  7.8047E+00   8.5490E+02  0.000E+00  0.000E+00  0.000E+00  1.06708E+03  1.001E+01  1.200E+01  6.000E-01  4.336E+00
   2    8    6     2     5    8.5490E+02  7.7716E+00   8.4713E+02  0.000E+00  0.000E+00  0.000E+00  1.06231E+03  9.953E+00  1.200E+01  6.000E-01  4.318E+00
   2    3    5     3     1    1.0000E+01  2.8252E+00   7.1748E+00  0.000E+00  0.000E+00  0.000E+00  1.07555E+03  1.909E+00  9.636E+00  7.227E-01  1.955E+00
   2    3    6     3     2    7.1748E+00  2.4905E+00   4.6843E+00  0.000E+00  0.000E+00  0.000E+00  1.07264E+03  1.727E+00  8.909E+00  6.682E-01  1.864E+00
   2    3    7     3     3    4.6843E+00  1.9718E+00   2.7125E+00  0.000E+00  0.000E+00  0.000E+00  1.06987E+03  1.555E+00  8.218E+00  5.547E-01  1.777E+00
   2    4    8     3     4    2.7125E+00  2.2567E+00   4.5579E-01  0.000E+00  0.000E+00  0.000E+00  1.06682E+03  1.364E+00  7.455E+00  6.709E-01  1.682E+00
   2    5    8     3     5    4.5579E-01  4.5579E-01   0.0000E+00  0.000E+00  0.000E+00  0.000E+00  1.06362E+03  0.000E+00  6.655E+00  4.991E-01  1.582E+00
   2    6    8     3     6    0.0000E+00  0.0000E+00   0.0000E+00  0.000E+00  0.000E+00  0.000E+00  1.06055E+03  0.000E+00  6.145E+00  1.844E-01  1.000E+00
   2    5   10     4     1    1.0000E+01  9.0525E-01   9.0947E+00  0.000E+00  0.000E+00  0.000E+00  1.07835E+03  6.210E-01  1.000E+01  2.500E-01  1.207E+00
   2    5    9     4     2    9.0947E+00  1.7835E+00   7.3113E+00  0.000E+00  0.000E+00  0.000E+00  1.07148E+03  5.670E-01  1.000E+01  5.000E-01  1.189E+00
   2    6    8     4     3    7.3113E+00  1.2257E+00   6.0855E+00  0.000E+00  0.000E+00  0.000E+00  1.06368E+03  5.021E-01  1.000E+01  3.500E-01  1.167E+00
   2    6    8     5     1    6.0855E+00  1.4716E+00   4.6139E+00  0.000E+00  0.000E+00  0.000E+00  1.05854E+03  5.396E-01  1.039E+01  4.158E-01  1.180E+00
   2    7    7     5     2    4.6139E+00  1.4897E+00   3.1242E+00  0.000E+00  0.000E+00  0.000E+00  1.05398E+03  4.817E-01  8.557E+00  4.279E-01  1.161E+00
   2    8    7     5     3    3.1242E+00  8.2855E-01   2.2957E+00  0.000E+00  0.000E+00  0.000E+00  1.04968E+03  4.253E-01  6.911E+00  2.419E-01  1.142E+00
   2    8    6     5     4    2.2957E+00  4.9455E-01   1.8011E+00  0.000E+00  0.000E+00  0.000E+00  1.04664E+03  3.856E-01  5.843E+00  1.461E-01  1.129E+00
   2    9    6     6     1    8.4893E+02  7.8125E+00   8.4112E+02  0.000E+00  0.000E+00  0.000E+00  1.05275E+03  1.002E+01  1.200E+01  6.000E-01  4.340E+00
   2   10    7     6     2    8.4112E+02  7.7787E+00   8.3334E+02  0.000E+00  0.000E+00  0.000E+00  1.04815E+03  9.965E+00  1.200E+01  6.000E-01  4.322E+00
   2   11    7     6     3    8.3334E+02  7.2721E+00   8.2607E+02  0.000E+00  0.000E+00  0.000E+00  1.04355E+03  9.910E+00  1.200E+01  6.000E-01  4.040E+00
   2   12    7     6     4    8.2607E+02  5.6925E+00   8.2037E+02  0.000E+00  0.000E+00  0.000E+00  1.03895E+03  9.863E+00  1.200E+01  6.000E-01  3.163E+00
   2   13    7     6     5    8.2037E+02  1.4704E+00   8.1890E+02  0.000E+00  0.000E+00  0.000E+00  1.03575E+03  9.837E+00  1.200E+01  2.400E-01  2.042E+00
   2   14    9     7     1    1.5000E+02  2.7911E+00   1.4721E+02  0.000E+00  0.000E+00  0.000E+00  1.03986E+03  2.284E+00  5.528E+01  5.591E+00  1.664E-01
   2   13    8     7     2    1.4721E+02  3.5898E+00   1.4362E+02  0.000E+00  0.000E+00  0.000E+00  1.03477E+03  2.267E+00  5.520E+01  6.141E+00  1.949E-01
   2   13    7     7     3    1.4362E+02  3.1434E-01   1.4330E+02  0.000E+00  0.000E+00  0.000E+00  1.02968E+03  2.256E+00  5.515E+01  5.578E+00  1.879E-02
   2   13    6     8     1    9.6221E+02  9.7206E+00   9.5688E+02  4.394E+00  0.000E+00  0.000E+00  1.02740E+03  5.529E+00  6.445E+01  6.625E+00  4.891E-01
   2   13    5     8     2    9.5688E+02  6.3672E+00   9.5491E+02  4.394E+00  0.000E+00  0.000E+00  1.02115E+03  5.520E+00  6.442E+01  6.621E+00  3.206E-01
   2   13    4     8     3    9.5491E+02  3.8395E+00   9.5546E+02  4.394E+00  0.000E+00  0.000E+00  1.01489E+03  5.519E+00  6.441E+01  6.620E+00  1.933E-01
   2   13    3     8     4    9.5546E+02  2.7840E+00   9.5707E+02  4.394E+00  0.000E+00  0.000E+00  1.00865E+03  5.521E+00  6.442E+01  6.621E+00  1.402E-01
   2   13    2     8     5    9.5707E+02  3.6236E+00   9.5785E+02  4.394E+00  0.000E+00  0.000E+00  1.00240E+03  5.524E+00  6.443E+01  6.623E+00  1.824E-01
   2   13    1     8     6    9.5785E+02  2.7462E+00   9.5774E+02  2.637E+00  0.000E+00  0.000E+00  9.97400E+02  5.525E+00  6.444E+01  3.974E+00  2.304E-01
   2    4    5     9     1    0.0000E+00  0.0000E+00   0.0000E+00  0.000E+00  0.000E+00  0.000E+00  1.06000E+03  5.199E-04  2.000E+01  2.000E-03 -1.570E+00
   2    4    5    10     1    0.0000E+00  0.0000E+00   0.0000E+00  0.000E+00  0.000E+00  0.000E+00  1.08000E+03  0.000E+00  2.000E+01  2.000E-03  1.000E+00





UNSATURATED ZONE PACKAGE VOLUMETRIC BUDGET FOR  TIME STEP    15 STRESS PERIOD    6
  ------------------------------------------------------------------------------



     CUMULATIVE VOLUMES      L**3       RATES FOR THIS TIME STEP      L**3/T
     ------------------                 ------------------------

           IN:                                      IN:
           ---                                      ---
        INFILTRATION =  1320350629.4954          INFILTRATION =          83.4937

          OUT:                                     OUT:
          ----                                     ----
              UZF ET =  1086231112.1854                UZF ET =          59.3633
        UZF RECHARGE =   601261971.3816          UZF RECHARGE =          31.9514

            IN - OUT =  -367142454.0716              IN - OUT =          -7.8209

          STORAGE:                                 STORAGE:
          --------                                 --------
      STORAGE CHANGE =  -367239060.0934        STORAGE CHANGE =          -7.7787

 PERCENT DISCREPANCY IS DIFFERENCE BETWEEN IN-OUT MINUS CHANGE IN STORAGE
 DIVIDED BY THE AVERAGE OF IN AND OUT TIMES 100

 PERCENT DISCREPANCY =           0.00     PERCENT DISCREPANCY =          -0.05






1
  VOLUMETRIC BUDGET FOR ENTIRE MODEL AT END OF TIME STEP   15, STRESS PERIOD   6
  ------------------------------------------------------------------------------

     CUMULATIVE VOLUMES      L**3       RATES FOR THIS TIME STEP      L**3/T
     ------------------                 ------------------------

           IN:                                      IN:
           ---                                      ---
             STORAGE =    99861568.0000               STORAGE =          10.4428
       CONSTANT HEAD =           0.0000         CONSTANT HEAD =           0.0000
               WELLS =           0.0000                 WELLS =           0.0000
     HEAD DEP BOUNDS =     3382471.5000       HEAD DEP BOUNDS =           0.2141
      STREAM LEAKAGE =  1119011072.0000        STREAM LEAKAGE =         184.8730
       LAKE  SEEPAGE =           0.0000         LAKE  SEEPAGE =           0.0000
        UZF RECHARGE =   601261888.0000          UZF RECHARGE =          31.9514
               GW ET =           0.0000                 GW ET =           0.0000
     SURFACE LEAKAGE =           0.0000       SURFACE LEAKAGE =           0.0000

            TOTAL IN =  1823516928.0000              TOTAL IN =         227.4812

          OUT:                                     OUT:
          ----                                     ----
             STORAGE =  1066240896.0000               STORAGE =         197.7277
       CONSTANT HEAD =           0.0000         CONSTANT HEAD =           0.0000
               WELLS =   236520000.0000                 WELLS =           0.0000
     HEAD DEP BOUNDS =     4694771.5000       HEAD DEP BOUNDS =           0.3309
      STREAM LEAKAGE =   286220288.0000        STREAM LEAKAGE =           0.0000
       LAKE  SEEPAGE =           0.0000         LAKE  SEEPAGE =           0.0000
        UZF RECHARGE =           0.0000          UZF RECHARGE =           0.0000
               GW ET =   204162304.0000                 GW ET =          16.2468
     SURFACE LEAKAGE =    51995268.0000       SURFACE LEAKAGE =          23.4492

           TOTAL OUT =  1849833600.0000             TOTAL OUT =         237.7546

            IN - OUT =   -26316672.0000              IN - OUT =         -10.2734

 PERCENT DISCREPANCY =          -1.43     PERCENT DISCREPANCY =          -4.42






         TIME SUMMARY AT END OF TIME STEP   15 IN STRESS PERIOD    6
                    SECONDS     MINUTES      HOURS       DAYS        YEARS
                    -----------------------------------------------------------
   TIME STEP LENGTH 1.75200E+05  2920.0      48.667      2.0278     5.55175E-03
 STRESS PERIOD TIME 2.62800E+06  43800.      730.00      30.417     8.32763E-02
         TOTAL TIME 1.57680E+07 2.62800E+05  4380.0      182.50     0.49966    
1
1
                            STRESS PERIOD NO.    7, LENGTH =   2628000.    
                            -----------------------------------------------

                              NUMBER OF TIME STEPS =    15

                               MULTIPLIER FOR DELT =     1.000

                            INITIAL TIME STEP SIZE =   175200.0    

 WELL NO.  LAYER   ROW   COL   STRESS RATE         
 --------------------------------------------------
      1      2      6      4      -2.000    
      2      2      6      5      -2.000    
      3      2      7      4      -2.000    
      4      2      7      5      -2.000    
      5      2      8      4      -2.000    
      6      2      8      5      -2.000    
      7      2      9      4      -2.000    
      8      2      9      5      -2.000    
      9      2     10      4      -2.000    
     10      2     10      5      -2.000    

     10 WELLS

 REUSING NON-PARAMETER GHB CELLS FROM LAST STRESS PERIOD

      2 GHB CELLS

 REUSING STREAM SEGMENT DATA FROM LAST STRESS PERIOD



            AREAL INFILTRATION RATE
 READING ON UNIT   19 WITH FORMAT: (10F4.0)            

            1           2           3           4           5           6           7           8           9          10
 ........................................................................................................................
   1   3.0000E-09  6.0000E-09   0.000       0.000       0.000       0.000       0.000       0.000       0.000       0.000    
   2   6.0000E-09  3.0000E-09  6.0000E-09   0.000       0.000      2.4000E-08  2.4000E-08  1.5000E-08   0.000       0.000    
   3    0.000      1.5000E-08  3.0000E-09  3.0000E-09  2.4000E-08  2.4000E-08  1.5000E-08  1.5000E-08   0.000       0.000    
   4   2.4000E-08  1.5000E-08  3.0000E-09  3.0000E-09  3.0000E-09  3.0000E-09  3.0000E-09  3.0000E-09  6.0000E-09   0.000    
   5   2.4000E-08  1.5000E-08  3.0000E-09  3.0000E-09  3.0000E-09  3.0000E-09  3.0000E-09  3.0000E-09  3.0000E-09  3.0000E-09
   6   2.4000E-08  1.5000E-08  1.5000E-08  6.0000E-09  6.0000E-09  3.0000E-09  3.0000E-09  3.0000E-09  3.0000E-09  1.5000E-08
   7   2.4000E-08  1.5000E-08  1.5000E-08  6.0000E-09  6.0000E-09  3.0000E-09  3.0000E-09  6.0000E-09  6.0000E-09   0.000    
   8    0.000      1.5000E-08  1.5000E-08  6.0000E-09  6.0000E-09  3.0000E-09  3.0000E-09  6.0000E-09  1.5000E-08   0.000    
   9    0.000      1.5000E-08  1.5000E-08  6.0000E-09  6.0000E-09  3.0000E-09  3.0000E-09  6.0000E-09  1.5000E-08   0.000    
  10    0.000      1.5000E-08  1.5000E-08  6.0000E-09  6.0000E-09  3.0000E-09  3.0000E-09  6.0000E-09  1.5000E-08  2.4000E-08
  11    0.000      3.0000E-09  3.0000E-09  3.0000E-09  3.0000E-09  3.0000E-09  3.0000E-09  6.0000E-09  1.5000E-08   0.000    
  12   3.0000E-09  3.0000E-09  3.0000E-09  3.0000E-09  3.0000E-09  3.0000E-09  3.0000E-09  3.0000E-09  6.0000E-09   0.000    
  13   3.0000E-09  3.0000E-09  6.0000E-09  6.0000E-09  6.0000E-09  6.0000E-09  6.0000E-09  3.0000E-09  3.0000E-09   0.000    
  14    0.000      6.0000E-09  1.5000E-08  1.5000E-08  1.5000E-08  1.5000E-08  1.5000E-08  6.0000E-09  3.0000E-09   0.000    
  15    0.000       0.000      2.4000E-08  2.4000E-08  2.4000E-08  2.4000E-08   0.000       0.000       0.000       0.000    

USING ET RATE FROM PREVIOUS STRESS PERIOD. CURRENT PERIOD IS:       7

 USING ET EXTINCTION DEPTH FROM PREVIOUS STRESS PERIOD. CURRENT PERIOD IS:       7

 USING EXTINCTION WATER CONTENT FROM PREVIOUS STRESS PERIOD. CURRENT PERIOD IS:       7




 If any subsequent steady-state stress periods, min. and max. stages for each lake will be read in Record 9a.




 REUSING LAKE CONFIGURATION DATA FROM LAST STRESS PERIOD


 LAKE       PRECIP     EVAP     RUNOFF   WITHDRAW   BOTTOM     AREA
----------------------------------------------------------------------
   1     0.000E+00 4.000E-08 0.000E+00  0.000E+00 1.074E+03 2.500E+07




         C               INTERFACE CONDUCTANCES BETWEEN LAKE AND AQUIFER CELLS
   L     O          (IF TYPE = 6, CONDUCTANCE (L^2/T) IS BETWEEN AQUIFER CELL AND OVERLYING LAKE CELL.)
   A     L  L  T    (IF TYPE = 1 TO 4, CONDUCTANCES ARE PER UNIT SATURATED THICKNESS (L/T).)
   Y  R  U  A  Y
   E  O  M  K  P                        LAKEBED      C O N D U C T A N C E S
   R  W  N  E  E     DELTA Y   DELTA X  LEAKANCE   LAKEBED   AQUIFER  COMBINED
 _______________________________________________________________________________
   1  4  4  1  2    5.00E+03  5.00E+03  5.00E-02  2.50E+02  6.00E-03  6.00E-03
   1  3  5  1  3    5.00E+03  5.00E+03  5.00E-02  2.50E+02  1.20E-03  1.20E-03
   2  4  5  1  6    5.00E+03  5.00E+03  5.00E-02  1.25E+06  9.42E+00  9.42E+00
   1  5  5  1  4    5.00E+03  5.00E+03  5.00E-02  2.50E+02  6.00E-03  6.00E-03
   1  4  6  1  1    5.00E+03  5.00E+03  5.00E-02  2.50E+02  6.00E-03  6.00E-03
      LAKE     INFLOWING STREAM SEGMENT
         1                  9

 MAXIMUM NUMBER OF STREAMS INFLOWING TO A LAKE IS    1

      LAKE     OUTFLOWING STREAM SEGMENT
         1                 10

 MAXIMUM NUMBER OF STREAMS OUTFLOWING FROM A LAKE IS    1

 
 SOLVING FOR HEAD 
                                                   Max.-Head-Change                         Max.-Flux-Residual
  Residual-Control   Outer-Iter.   Inner-Iter.     Column Row Layer    Maximum-Head-Change  Column Row Layer    Maximum-Flux-Residual          L2-NORM 
          0                 1           2             3    3     2       0.5348836476E+00       3    3    2         0.1440737131E+02      0.3253003381E+02
          0                 2           2             3    3     2      -0.5031722872E-01       3    3    2        -0.1417111751E+01      0.2696662427E+01
          0                 3           2             3    3     2       0.2814316895E-02       3    3    2         0.8267444659E-01      0.1496181493E+00
          0                 4           1             3    3     2      -0.5415282267E-04       4    3    2        -0.1655987096E-02      0.3375791185E-02

    ------------------------------------------------
       NWT REQUIRED            4 OUTER ITERATIONS 
       AND A TOTAL OF          7 INNER ITERATIONS.
    ------------------------------------------------

 NO OUTPUT CONTROL FOR STRESS PERIOD    7   TIME STEP    1
 
 SOLVING FOR HEAD 
                                                   Max.-Head-Change                         Max.-Flux-Residual
  Residual-Control   Outer-Iter.   Inner-Iter.     Column Row Layer    Maximum-Head-Change  Column Row Layer    Maximum-Flux-Residual          L2-NORM 
          0                 1           2             3    3     2       0.4833805537E+00       3    3    2         0.1299440643E+02      0.2843561496E+02
          0                 2           2             3    3     2      -0.4551112317E-01       3    3    2        -0.1280687329E+01      0.2340277790E+01
          0                 3           2             3    3     2       0.2553557105E-02       3    3    2         0.7501344284E-01      0.1296317815E+00
          0                 4           1             3    3     2      -0.4972259782E-04       3    3    2        -0.1518520872E-02      0.2792393827E-02

    ------------------------------------------------
       NWT REQUIRED            4 OUTER ITERATIONS 
       AND A TOTAL OF          7 INNER ITERATIONS.
    ------------------------------------------------

 NO OUTPUT CONTROL FOR STRESS PERIOD    7   TIME STEP    2
 
 SOLVING FOR HEAD 
                                                   Max.-Head-Change                         Max.-Flux-Residual
  Residual-Control   Outer-Iter.   Inner-Iter.     Column Row Layer    Maximum-Head-Change  Column Row Layer    Maximum-Flux-Residual          L2-NORM 
          0                 1           2             5   13     2      -0.4011996480E+00       5    4    2        -0.1183767116E+02      0.2433836201E+02
          0                 2           2             5   13     2       0.8538106961E-01       5   13    2         0.3625395757E+01      0.4293490281E+01
          0                 3           2             5   13     2      -0.6108204756E-02       5   13    2        -0.2810931407E+00      0.3120906827E+00
          0                 4           1             2   13     2      -0.1197645776E-03       5   13    2         0.4724371827E-02      0.7435122110E-02

    ------------------------------------------------
       NWT REQUIRED            4 OUTER ITERATIONS 
       AND A TOTAL OF          7 INNER ITERATIONS.
    ------------------------------------------------

 NO OUTPUT CONTROL FOR STRESS PERIOD    7   TIME STEP    3
 
 SOLVING FOR HEAD 
                                                   Max.-Head-Change                         Max.-Flux-Residual
  Residual-Control   Outer-Iter.   Inner-Iter.     Column Row Layer    Maximum-Head-Change  Column Row Layer    Maximum-Flux-Residual          L2-NORM 
          0                 1           2             5    4     2      -0.3417589398E+00       5    4    2        -0.1037912659E+02      0.1745842150E+02
          0                 2           2             6   13     2       0.1397657962E-01       6   13    2         0.4962407873E+00      0.1068321053E+01
          0                 3           1             6   13     2      -0.7704015533E-03       6   13    2        -0.2846314576E-01      0.5196444390E-01

    ------------------------------------------------
       NWT REQUIRED            3 OUTER ITERATIONS 
       AND A TOTAL OF          5 INNER ITERATIONS.
    ------------------------------------------------

 NO OUTPUT CONTROL FOR STRESS PERIOD    7   TIME STEP    4
 
 SOLVING FOR HEAD 
                                                   Max.-Head-Change                         Max.-Flux-Residual
  Residual-Control   Outer-Iter.   Inner-Iter.     Column Row Layer    Maximum-Head-Change  Column Row Layer    Maximum-Flux-Residual          L2-NORM 
          0                 1           2             5    4     2      -0.3000151421E+00       5    4    2        -0.9081111609E+01      0.1546321746E+02
          0                 2           2             4    3     2      -0.1220405369E-01       6   13    2         0.3909816704E+00      0.9374579101E+00
          0                 3           1             4    3     2       0.6986535114E-03       6   13    2        -0.2242213700E-01      0.4564020623E-01

    ------------------------------------------------
       NWT REQUIRED            3 OUTER ITERATIONS 
       AND A TOTAL OF          5 INNER ITERATIONS.
    ------------------------------------------------

 OUTPUT CONTROL FOR STRESS PERIOD    7   TIME STEP    5
    PRINT BUDGET
    SAVE BUDGET

            WELLS   PERIOD    7   STEP   5
 WELL      1   LAYER   2   ROW     6   COL     4   RATE    -2.00000    
 WELL      2   LAYER   2   ROW     6   COL     5   RATE    -2.00000    
 WELL      3   LAYER   2   ROW     7   COL     4   RATE    -2.00000    
 WELL      4   LAYER   2   ROW     7   COL     5   RATE    -2.00000    
 WELL      5   LAYER   2   ROW     8   COL     4   RATE    -2.00000    
 WELL      6   LAYER   2   ROW     8   COL     5   RATE    -2.00000    
 WELL      7   LAYER   2   ROW     9   COL     4   RATE    -2.00000    
 WELL      8   LAYER   2   ROW     9   COL     5   RATE    -2.00000    
 WELL      9   LAYER   2   ROW    10   COL     4   RATE    -2.00000    
 WELL     10   LAYER   2   ROW    10   COL     5   RATE    -2.00000    

  HEAD DEP BOUNDS   PERIOD    7   STEP     5
 BOUNDARY      1   LAYER   2   ROW    13   COL     1   RATE   -0.327543    
 BOUNDARY      2   LAYER   2   ROW    14   COL     9   RATE    0.214289    



 STREAM LISTING     PERIOD      7   STEP        5

 LAYER ROW COL. STREAM  RCH.  FLOW INTO     FLOW TO   FLOW OUT OF   OVRLND.     DIRECT     STREAM       STREAM     STREAM     STREAM   STREAMBED  STREAMBED
                SEG.NO.  NO.  STRM. RCH.    AQUIFER    STRM. RCH.    RUNOFF     PRECIP       ET          HEAD       DEPTH      WIDTH   CONDCTNC.   GRADIENT

   2    1    1     1     1    3.0400E+02  2.6566E+00   3.0134E+02  0.000E+00  0.000E+00  0.000E+00  1.09577E+03  2.719E+00  3.337E+01  1.501E+00  5.898E-01
   2    2    2     1     2    3.0134E+02  8.5642E+00   2.9278E+02  0.000E+00  0.000E+00  0.000E+00  1.09076E+03  2.701E+00  3.313E+01  2.319E+00  1.231E+00
   2    3    3     1     3    2.9278E+02  1.1123E+01   2.8166E+02  0.000E+00  0.000E+00  0.000E+00  1.08509E+03  2.667E+00  3.271E+01  1.963E+00  1.889E+00
   2    3    4     1     4    2.8166E+02  1.0078E+01   2.7158E+02  0.000E+00  0.000E+00  0.000E+00  1.08004E+03  2.630E+00  3.225E+01  1.790E+00  1.877E+00
   2    4    5     2     1    2.6158E+02  0.0000E+00   2.6158E+02  0.000E+00  0.000E+00  0.000E+00  1.07684E+03  4.905E+00  1.200E+01  7.800E-01  2.635E+00
   2    5    6     2     2    2.6158E+02  4.7056E+00   2.5687E+02  0.000E+00  0.000E+00  0.000E+00  1.07135E+03  4.843E+00  1.200E+01  6.000E-01  2.614E+00
   2    6    6     2     3    2.5687E+02  4.6731E+00   2.5220E+02  0.000E+00  0.000E+00  0.000E+00  1.06658E+03  4.789E+00  1.200E+01  6.000E-01  2.596E+00
   2    7    6     2     4    2.5220E+02  4.6407E+00   2.4756E+02  0.000E+00  0.000E+00  0.000E+00  1.06181E+03  4.734E+00  1.200E+01  6.000E-01  2.578E+00
   2    8    6     2     5    2.4756E+02  4.6082E+00   2.4295E+02  0.000E+00  0.000E+00  0.000E+00  1.05704E+03  4.680E+00  1.200E+01  6.000E-01  2.560E+00
   2    3    5     3     1    1.0000E+01  2.8252E+00   7.1748E+00  0.000E+00  0.000E+00  0.000E+00  1.07555E+03  1.909E+00  9.636E+00  7.227E-01  1.955E+00
   2    3    6     3     2    7.1748E+00  2.4905E+00   4.6843E+00  0.000E+00  0.000E+00  0.000E+00  1.07264E+03  1.727E+00  8.909E+00  6.682E-01  1.864E+00
   2    3    7     3     3    4.6843E+00  1.9718E+00   2.7125E+00  0.000E+00  0.000E+00  0.000E+00  1.06987E+03  1.555E+00  8.218E+00  5.547E-01  1.777E+00
   2    4    8     3     4    2.7125E+00  2.2567E+00   4.5579E-01  0.000E+00  0.000E+00  0.000E+00  1.06682E+03  1.364E+00  7.455E+00  6.709E-01  1.682E+00
   2    5    8     3     5    4.5579E-01  4.5579E-01   0.0000E+00  0.000E+00  0.000E+00  0.000E+00  1.06362E+03  0.000E+00  6.655E+00  4.991E-01  1.582E+00
   2    6    8     3     6    0.0000E+00  0.0000E+00   0.0000E+00  0.000E+00  0.000E+00  0.000E+00  1.06055E+03  0.000E+00  6.145E+00  1.844E-01  1.000E+00
   2    5   10     4     1    1.0000E+01  9.0525E-01   9.0947E+00  0.000E+00  0.000E+00  0.000E+00  1.07835E+03  6.210E-01  1.000E+01  2.500E-01  1.207E+00
   2    5    9     4     2    9.0947E+00  1.7835E+00   7.3113E+00  0.000E+00  0.000E+00  0.000E+00  1.07148E+03  5.670E-01  1.000E+01  5.000E-01  1.189E+00
   2    6    8     4     3    7.3113E+00  1.2257E+00   6.0855E+00  0.000E+00  0.000E+00  0.000E+00  1.06368E+03  5.021E-01  1.000E+01  3.500E-01  1.167E+00
   2    6    8     5     1    6.0855E+00  1.4716E+00   4.6139E+00  0.000E+00  0.000E+00  0.000E+00  1.05854E+03  5.396E-01  1.039E+01  4.158E-01  1.180E+00
   2    7    7     5     2    4.6139E+00  1.4897E+00   3.1242E+00  0.000E+00  0.000E+00  0.000E+00  1.05398E+03  4.817E-01  8.557E+00  4.279E-01  1.161E+00
   2    8    7     5     3    3.1242E+00  8.2855E-01   2.2957E+00  0.000E+00  0.000E+00  0.000E+00  1.04968E+03  4.253E-01  6.911E+00  2.419E-01  1.142E+00
   2    8    6     5     4    2.2957E+00  4.9455E-01   1.8011E+00  0.000E+00  0.000E+00  0.000E+00  1.04664E+03  3.856E-01  5.843E+00  1.461E-01  1.129E+00
   2    9    6     6     1    2.4475E+02  4.6195E+00   2.4013E+02  0.000E+00  0.000E+00  0.000E+00  1.04743E+03  4.699E+00  1.200E+01  6.000E-01  2.566E+00
   2   10    7     6     2    2.4013E+02  4.5864E+00   2.3555E+02  0.000E+00  0.000E+00  0.000E+00  1.04283E+03  4.644E+00  1.200E+01  6.000E-01  2.548E+00
   2   11    7     6     3    2.3555E+02  3.8790E+00   2.3167E+02  0.000E+00  0.000E+00  0.000E+00  1.03823E+03  4.593E+00  1.200E+01  6.000E-01  2.155E+00
   2   12    7     6     4    2.3167E+02  2.3472E+00   2.2932E+02  0.000E+00  0.000E+00  0.000E+00  1.03365E+03  4.555E+00  1.200E+01  6.000E-01  1.304E+00
   2   13    7     6     5    2.2932E+02  1.8793E-01   2.2913E+02  0.000E+00  0.000E+00  0.000E+00  1.03045E+03  4.540E+00  1.200E+01  2.400E-01  2.610E-01
   2   14    9     7     1    1.5000E+02  2.8159E+00   1.4718E+02  0.000E+00  0.000E+00  0.000E+00  1.03986E+03  2.284E+00  5.528E+01  5.591E+00  1.679E-01
   2   13    8     7     2    1.4718E+02  3.5217E+00   1.4366E+02  0.000E+00  0.000E+00  0.000E+00  1.03477E+03  2.267E+00  5.520E+01  6.141E+00  1.912E-01
   2   13    7     7     3    1.4366E+02  6.0785E-02   1.4360E+02  0.000E+00  0.000E+00  0.000E+00  1.02968E+03  2.257E+00  5.516E+01  5.578E+00  3.632E-03
   2   13    6     8     1    3.7273E+02  1.6343E-01   3.7370E+02  1.133E+00  0.000E+00  0.000E+00  1.02582E+03  3.940E+00  5.713E+01  5.822E+00  9.357E-03
   2   13    5     8     2    3.7370E+02 -1.4617E+00   3.7630E+02  1.133E+00  0.000E+00  0.000E+00  1.01957E+03  3.947E+00  5.723E+01  5.832E+00 -8.354E-02
   2   13    4     8     3    3.7630E+02 -3.4358E+00   3.8086E+02  1.133E+00  0.000E+00  0.000E+00  1.01334E+03  3.962E+00  5.744E+01  5.854E+00 -1.957E-01
   2   13    3     8     4    3.8086E+02 -4.5108E+00   3.8651E+02  1.133E+00  0.000E+00  0.000E+00  1.00711E+03  3.982E+00  5.774E+01  5.884E+00 -2.556E-01
   2   13    2     8     5    3.8651E+02 -5.3225E+00   3.9296E+02  1.133E+00  0.000E+00  0.000E+00  1.00088E+03  4.005E+00  5.802E+01  5.913E+00 -3.001E-01
   2   13    1     8     6    3.9296E+02 -2.5701E+00   3.9621E+02  6.795E-01  0.000E+00  0.000E+00  9.95896E+02  4.021E+00  5.809E+01  3.552E+00 -2.412E-01
   2    4    5     9     1    0.0000E+00  0.0000E+00   0.0000E+00  0.000E+00  0.000E+00  0.000E+00  1.06000E+03  3.938E-04  2.000E+01  2.000E-03 -9.878E-01
   2    4    5    10     1    0.0000E+00  0.0000E+00   0.0000E+00  0.000E+00  0.000E+00  0.000E+00  1.08000E+03  0.000E+00  2.000E+01  2.000E-03  1.000E+00





     0  LAKE CELLS ARE DRY.

 PERIOD     7     TIME STEP     5     TIME STEP LENGTH  1.7520E+05
 PERIOD TIME  8.7600E+05     TOTAL SIMULATION TIME  1.6644E+07


                 HYDROLOGIC BUDGET SUMMARIES FOR SIMULATED LAKES
     (ALL FLUID FLUXES ARE VOLUMES ADDED TO THE LAKE DURING PRESENT TIME STEP)
     ----------------------------------------------------------------------------------------
 LAKE    STAGE         VOLUME     VOL. CHANGE      PRECIP     EVAPORATION    SPECIFIED RUNOFF     COMPUTED RUNOFF    TOTAL RUNOFF
   1  1.074517E+03  2.883255E+03 -3.046543E+02  0.000000E+00  3.183375E+02   0.000000E+00          0.000000E+00      0.000000E+00

            GROUND WATER            SURFACE WATER        WATER          UZF INFIL.
 LAKE    INFLOW     OUTFLOW      INFLOW     OUTFLOW       USE        FROM LAKE
   1  0.0000E+00  0.0000E+00  0.0000E+00  0.0000E+00  0.0000E+00       1.0234E+03

      CONNECTED LAKE   TIME-STEP         STAGE-CHANGE          PERCENT
 LAKE    INFLUX      SURFACE AREA   TIME STEP  CUMULATIVE    DISCREPANCY
   1   0.0000E+00     4.5425E+04  -1.8161E-03  1.7227E-02     -77.295
 --------------------------------------------------------------------------------



            CUMULATIVE HYDROLOGIC BUDGET SUMMARIES FOR SIMULATED LAKES
     (ALL FLUID FLUXES ARE SUMS OF VOLUMES ADDED TO THE LAKE SINCE INITIAL TIME)
     ---------------------------------------------------------------------------
 LAKE       PRECIP       EVAP     SPECIFIED RUNOFF   COMPUTED RUNOFF   TOTAL RUNOFF
   1     0.0000E+00  1.6036E+06       0.0000E+00       0.0000E+00       0.0000E+00

            GROUND WATER            SURFACE WATER       UZF INFIL.
 LAKE    INFLOW     OUTFLOW      INFLOW     OUTFLOW     FROM LAKE
   1  0.0000E+00  0.0000E+00  1.9325E+08  4.8782E+07    1.4290E+08

         WATER    CONNECTED LAKE   CHANGE       PERCENT
 LAKE     USE         INFLUX       IN VOL.    DISCREPANCY
   1   0.0000E+00   0.0000E+00   2.8833E+03     -0.020
 --------------------------------------------------------------------------------

 UBDSV3 SAVING "           GW ET" ON UNIT  61 AT TIME STEP     5, STRESS PERIOD   7
 UBDSV3 SAVING "    UZF RECHARGE" ON UNIT  61 AT TIME STEP     5, STRESS PERIOD   7
 UBDSV3 SAVING " SURFACE LEAKAGE" ON UNIT  61 AT TIME STEP     5, STRESS PERIOD   7
 UBDSV3 SAVING "       HORT+DUNN" ON UNIT  61 AT TIME STEP     5, STRESS PERIOD   7
 UBDSV3 SAVING "  STORAGE CHANGE" ON UNIT  61 AT TIME STEP     5, STRESS PERIOD   7


UNSATURATED ZONE PACKAGE VOLUMETRIC BUDGET FOR  TIME STEP     5 STRESS PERIOD    7
  ------------------------------------------------------------------------------



     CUMULATIVE VOLUMES      L**3       RATES FOR THIS TIME STEP      L**3/T
     ------------------                 ------------------------

           IN:                                      IN:
           ---                                      ---
        INFILTRATION =  1342343319.2443          INFILTRATION =          25.1789

          OUT:                                     OUT:
          ----                                     ----
              UZF ET =  1138495708.2254                UZF ET =          59.6008
        UZF RECHARGE =   622149431.2863          UZF RECHARGE =          19.4574

            IN - OUT =  -418301820.2674              IN - OUT =         -53.8793

          STORAGE:                                 STORAGE:
          --------                                 --------
      STORAGE CHANGE =  -418366763.5377        STORAGE CHANGE =         -53.8443

 PERCENT DISCREPANCY IS DIFFERENCE BETWEEN IN-OUT MINUS CHANGE IN STORAGE
 DIVIDED BY THE AVERAGE OF IN AND OUT TIMES 100

 PERCENT DISCREPANCY =           0.00     PERCENT DISCREPANCY =          -0.04






1
  VOLUMETRIC BUDGET FOR ENTIRE MODEL AT END OF TIME STEP    5, STRESS PERIOD   7
  ------------------------------------------------------------------------------

     CUMULATIVE VOLUMES      L**3       RATES FOR THIS TIME STEP      L**3/T
     ------------------                 ------------------------

           IN:                                      IN:
           ---                                      ---
             STORAGE =   116497168.0000               STORAGE =          19.4056
       CONSTANT HEAD =           0.0000         CONSTANT HEAD =           0.0000
               WELLS =           0.0000                 WELLS =           0.0000
     HEAD DEP BOUNDS =     3570147.0000       HEAD DEP BOUNDS =           0.2143
      STREAM LEAKAGE =  1227780352.0000        STREAM LEAKAGE =          91.4303
       LAKE  SEEPAGE =           0.0000         LAKE  SEEPAGE =           0.0000
        UZF RECHARGE =   622149312.0000          UZF RECHARGE =          19.4574
               GW ET =           0.0000                 GW ET =           0.0000
     SURFACE LEAKAGE =           0.0000       SURFACE LEAKAGE =           0.0000

            TOTAL IN =  1969997056.0000              TOTAL IN =         130.5076

          OUT:                                     OUT:
          ----                                     ----
             STORAGE =  1164094592.0000               STORAGE =          76.1420
       CONSTANT HEAD =           0.0000         CONSTANT HEAD =           0.0000
               WELLS =   254040000.0000                 WELLS =          20.0000
     HEAD DEP BOUNDS =     4984672.5000       HEAD DEP BOUNDS =           0.3275
      STREAM LEAKAGE =   296249376.0000        STREAM LEAKAGE =          17.3008
       LAKE  SEEPAGE =           0.0000         LAKE  SEEPAGE =           0.0000
        UZF RECHARGE =           0.0000          UZF RECHARGE =           0.0000
               GW ET =   218770544.0000                 GW ET =          16.7340
     SURFACE LEAKAGE =    64952520.0000       SURFACE LEAKAGE =           6.1638

           TOTAL OUT =  2003091712.0000             TOTAL OUT =         136.6682

            IN - OUT =   -33094656.0000              IN - OUT =          -6.1606

 PERCENT DISCREPANCY =          -1.67     PERCENT DISCREPANCY =          -4.61






         TIME SUMMARY AT END OF TIME STEP    5 IN STRESS PERIOD    7
                    SECONDS     MINUTES      HOURS       DAYS        YEARS
                    -----------------------------------------------------------
   TIME STEP LENGTH 1.75200E+05  2920.0      48.667      2.0278     5.55175E-03
 STRESS PERIOD TIME 8.76000E+05  14600.      243.33      10.139     2.77588E-02
         TOTAL TIME 1.66440E+07 2.77400E+05  4623.3      192.64     0.52742    
1
 
 SOLVING FOR HEAD 
                                                   Max.-Head-Change                         Max.-Flux-Residual
  Residual-Control   Outer-Iter.   Inner-Iter.     Column Row Layer    Maximum-Head-Change  Column Row Layer    Maximum-Flux-Residual          L2-NORM 
          0                 1           2             5    4     2      -0.2906123267E+00       5    4    2        -0.8752915732E+01      0.1518211457E+02
          0                 2           2             6   13     2       0.1356579690E-01       6   13    2         0.4724884180E+00      0.9131026105E+00
          0                 3           1             6   13     2      -0.7381476961E-03       6   13    2        -0.2677432101E-01      0.4319568138E-01

    ------------------------------------------------
       NWT REQUIRED            3 OUTER ITERATIONS 
       AND A TOTAL OF          5 INNER ITERATIONS.
    ------------------------------------------------

 NO OUTPUT CONTROL FOR STRESS PERIOD    7   TIME STEP    6
 
 SOLVING FOR HEAD 
                                                   Max.-Head-Change                         Max.-Flux-Residual
  Residual-Control   Outer-Iter.   Inner-Iter.     Column Row Layer    Maximum-Head-Change  Column Row Layer    Maximum-Flux-Residual          L2-NORM 
          0                 1           2             5    4     2      -0.2693509205E+00       5    4    2        -0.8078596059E+01      0.1433146054E+02
          0                 2           2             6   13     2       0.1304293490E-01       6   13    2         0.4499189218E+00      0.8663813237E+00
          0                 3           1             6   13     2      -0.7068381898E-03       6   13    2        -0.2539970582E-01      0.4148781968E-01

    ------------------------------------------------
       NWT REQUIRED            3 OUTER ITERATIONS 
       AND A TOTAL OF          5 INNER ITERATIONS.
    ------------------------------------------------

 NO OUTPUT CONTROL FOR STRESS PERIOD    7   TIME STEP    7
 
 SOLVING FOR HEAD 
                                                   Max.-Head-Change                         Max.-Flux-Residual
  Residual-Control   Outer-Iter.   Inner-Iter.     Column Row Layer    Maximum-Head-Change  Column Row Layer    Maximum-Flux-Residual          L2-NORM 
          0                 1           2             5    4     2      -0.2334590077E+00       5    4    2        -0.6978549005E+01      0.1253824775E+02
          0                 2           2             6   13     2       0.1028660568E-01       6   13    2         0.3544267143E+00      0.7505164555E+00
          0                 3           1             6   13     2      -0.5543584309E-03       6   13    2        -0.1990483801E-01      0.3521980331E-01

    ------------------------------------------------
       NWT REQUIRED            3 OUTER ITERATIONS 
       AND A TOTAL OF          5 INNER ITERATIONS.
    ------------------------------------------------

 NO OUTPUT CONTROL FOR STRESS PERIOD    7   TIME STEP    8
 
 SOLVING FOR HEAD 
                                                   Max.-Head-Change                         Max.-Flux-Residual
  Residual-Control   Outer-Iter.   Inner-Iter.     Column Row Layer    Maximum-Head-Change  Column Row Layer    Maximum-Flux-Residual          L2-NORM 
          0                 1           2             5    4     2      -0.2073865993E+00       5    4    2        -0.6179448395E+01      0.1124597514E+02
          0                 2           2             6   13     2       0.8105718972E-02       6   13    2         0.2789834038E+00      0.6560672796E+00
          0                 3           1             6   13     2      -0.4343185689E-03       6   13    2        -0.1558376373E-01      0.3016265067E-01

    ------------------------------------------------
       NWT REQUIRED            3 OUTER ITERATIONS 
       AND A TOTAL OF          5 INNER ITERATIONS.
    ------------------------------------------------

 NO OUTPUT CONTROL FOR STRESS PERIOD    7   TIME STEP    9
 
 SOLVING FOR HEAD 
                                                   Max.-Head-Change                         Max.-Flux-Residual
  Residual-Control   Outer-Iter.   Inner-Iter.     Column Row Layer    Maximum-Head-Change  Column Row Layer    Maximum-Flux-Residual          L2-NORM 
          0                 1           2             5    4     2      -0.1934857740E+00       5    4    2        -0.5744764065E+01      0.1098890671E+02
          0                 2           2             2    2     2       0.8750696062E-02       6   13    2         0.2842256109E+00      0.6699312671E+00
          0                 3           1             2    2     2      -0.5028642650E-03       6   13    2        -0.1581626794E-01      0.3154121085E-01

    ------------------------------------------------
       NWT REQUIRED            3 OUTER ITERATIONS 
       AND A TOTAL OF          5 INNER ITERATIONS.
    ------------------------------------------------

 OUTPUT CONTROL FOR STRESS PERIOD    7   TIME STEP   10
    PRINT BUDGET
    SAVE BUDGET

            WELLS   PERIOD    7   STEP  10
 WELL      1   LAYER   2   ROW     6   COL     4   RATE    -2.00000    
 WELL      2   LAYER   2   ROW     6   COL     5   RATE    -2.00000    
 WELL      3   LAYER   2   ROW     7   COL     4   RATE    -2.00000    
 WELL      4   LAYER   2   ROW     7   COL     5   RATE    -2.00000    
 WELL      5   LAYER   2   ROW     8   COL     4   RATE    -2.00000    
 WELL      6   LAYER   2   ROW     8   COL     5   RATE    -2.00000    
 WELL      7   LAYER   2   ROW     9   COL     4   RATE    -2.00000    
 WELL      8   LAYER   2   ROW     9   COL     5   RATE    -2.00000    
 WELL      9   LAYER   2   ROW    10   COL     4   RATE    -2.00000    
 WELL     10   LAYER   2   ROW    10   COL     5   RATE    -2.00000    

  HEAD DEP BOUNDS   PERIOD    7   STEP    10
 BOUNDARY      1   LAYER   2   ROW    13   COL     1   RATE   -0.318493    
 BOUNDARY      2   LAYER   2   ROW    14   COL     9   RATE    0.214298    



 STREAM LISTING     PERIOD      7   STEP       10

 LAYER ROW COL. STREAM  RCH.  FLOW INTO     FLOW TO   FLOW OUT OF   OVRLND.     DIRECT     STREAM       STREAM     STREAM     STREAM   STREAMBED  STREAMBED
                SEG.NO.  NO.  STRM. RCH.    AQUIFER    STRM. RCH.    RUNOFF     PRECIP       ET          HEAD       DEPTH      WIDTH   CONDCTNC.   GRADIENT

   2    1    1     1     1    1.3412E+02  1.3924E+00   1.3273E+02  0.000E+00  0.000E+00  0.000E+00  1.09505E+03  2.004E+00  2.452E+01  1.103E+00  4.206E-01
   2    2    2     1     2    1.3273E+02  5.7123E+00   1.2702E+02  0.000E+00  0.000E+00  0.000E+00  1.09004E+03  1.984E+00  2.427E+01  1.699E+00  1.121E+00
   2    3    3     1     3    1.2702E+02  7.0694E+00   1.1995E+02  0.000E+00  0.000E+00  0.000E+00  1.08437E+03  1.947E+00  2.382E+01  1.429E+00  1.649E+00
   2    3    4     1     4    1.1995E+02  6.3513E+00   1.1360E+02  0.000E+00  0.000E+00  0.000E+00  1.07931E+03  1.907E+00  2.332E+01  1.294E+00  1.636E+00
   2    4    5     2     1    1.0360E+02  0.0000E+00   1.0360E+02  0.000E+00  0.000E+00  0.000E+00  1.07473E+03  2.796E+00  1.200E+01  7.800E-01  1.932E+00
   2    5    6     2     2    1.0360E+02  3.4380E+00   1.0016E+02  0.000E+00  0.000E+00  0.000E+00  1.06924E+03  2.730E+00  1.200E+01  6.000E-01  1.910E+00
   2    6    6     2     3    1.0016E+02  3.4032E+00   9.6757E+01  0.000E+00  0.000E+00  0.000E+00  1.06446E+03  2.672E+00  1.200E+01  6.000E-01  1.891E+00
   2    7    6     2     4    9.6757E+01  3.3683E+00   9.3388E+01  0.000E+00  0.000E+00  0.000E+00  1.05969E+03  2.614E+00  1.200E+01  6.000E-01  1.871E+00
   2    8    6     2     5    9.3388E+01  3.3332E+00   9.0055E+01  0.000E+00  0.000E+00  0.000E+00  1.05491E+03  2.555E+00  1.200E+01  6.000E-01  1.852E+00
   2    3    5     3     1    1.0000E+01  2.8252E+00   7.1748E+00  0.000E+00  0.000E+00  0.000E+00  1.07555E+03  1.909E+00  9.636E+00  7.227E-01  1.955E+00
   2    3    6     3     2    7.1748E+00  2.4905E+00   4.6843E+00  0.000E+00  0.000E+00  0.000E+00  1.07264E+03  1.727E+00  8.909E+00  6.682E-01  1.864E+00
   2    3    7     3     3    4.6843E+00  1.9718E+00   2.7125E+00  0.000E+00  0.000E+00  0.000E+00  1.06987E+03  1.555E+00  8.218E+00  5.547E-01  1.777E+00
   2    4    8     3     4    2.7125E+00  2.2567E+00   4.5579E-01  0.000E+00  0.000E+00  0.000E+00  1.06682E+03  1.364E+00  7.455E+00  6.709E-01  1.682E+00
   2    5    8     3     5    4.5579E-01  4.5579E-01   0.0000E+00  0.000E+00  0.000E+00  0.000E+00  1.06362E+03  0.000E+00  6.655E+00  4.991E-01  1.582E+00
   2    6    8     3     6    0.0000E+00  0.0000E+00   0.0000E+00  0.000E+00  0.000E+00  0.000E+00  1.06055E+03  0.000E+00  6.145E+00  1.844E-01  1.000E+00
   2    5   10     4     1    1.0000E+01  9.0525E-01   9.0947E+00  0.000E+00  0.000E+00  0.000E+00  1.07835E+03  6.210E-01  1.000E+01  2.500E-01  1.207E+00
   2    5    9     4     2    9.0947E+00  1.7835E+00   7.3113E+00  0.000E+00  0.000E+00  0.000E+00  1.07148E+03  5.670E-01  1.000E+01  5.000E-01  1.189E+00
   2    6    8     4     3    7.3113E+00  1.2257E+00   6.0855E+00  0.000E+00  0.000E+00  0.000E+00  1.06368E+03  5.021E-01  1.000E+01  3.500E-01  1.167E+00
   2    6    8     5     1    6.0855E+00  1.4716E+00   4.6139E+00  0.000E+00  0.000E+00  0.000E+00  1.05854E+03  5.396E-01  1.039E+01  4.158E-01  1.180E+00
   2    7    7     5     2    4.6139E+00  1.4897E+00   3.1242E+00  0.000E+00  0.000E+00  0.000E+00  1.05398E+03  4.817E-01  8.557E+00  4.279E-01  1.161E+00
   2    8    7     5     3    3.1242E+00  8.2855E-01   2.2957E+00  0.000E+00  0.000E+00  0.000E+00  1.04968E+03  4.253E-01  6.911E+00  2.419E-01  1.142E+00
   2    8    6     5     4    2.2957E+00  4.9455E-01   1.8011E+00  0.000E+00  0.000E+00  0.000E+00  1.04664E+03  3.856E-01  5.843E+00  1.461E-01  1.129E+00
   2    9    6     6     1    9.1856E+01  3.3340E+00   8.8522E+01  0.000E+00  0.000E+00  0.000E+00  1.04528E+03  2.557E+00  1.200E+01  6.000E-01  1.852E+00
   2   10    7     6     2    8.8522E+01  3.2981E+00   8.5224E+01  0.000E+00  0.000E+00  0.000E+00  1.04068E+03  2.497E+00  1.200E+01  6.000E-01  1.832E+00
   2   11    7     6     3    8.5224E+01  2.6025E+00   8.2622E+01  0.000E+00  0.000E+00  0.000E+00  1.03608E+03  2.443E+00  1.200E+01  6.000E-01  1.446E+00
   2   12    7     6     4    8.2622E+01  1.1218E+00   8.1500E+01  0.000E+00  0.000E+00  0.000E+00  1.03150E+03  2.408E+00  1.200E+01  6.000E-01  6.232E-01
   2   13    7     6     5    8.1500E+01 -2.9756E-01   8.1797E+01  0.000E+00  0.000E+00  0.000E+00  1.02831E+03  2.400E+00  1.200E+01  2.400E-01 -4.133E-01
   2   14    9     7     1    1.5000E+02  2.8172E+00   1.4718E+02  0.000E+00  0.000E+00  0.000E+00  1.03986E+03  2.284E+00  5.528E+01  5.591E+00  1.680E-01
   2   13    8     7     2    1.4718E+02  3.5182E+00   1.4366E+02  0.000E+00  0.000E+00  0.000E+00  1.03477E+03  2.267E+00  5.520E+01  6.141E+00  1.910E-01
   2   13    7     7     3    1.4366E+02  6.9976E-01   1.4296E+02  0.000E+00  0.000E+00  0.000E+00  1.02967E+03  2.256E+00  5.515E+01  5.577E+00  4.182E-02
   2   13    6     8     1    2.2476E+02 -5.9461E-01   2.2564E+02  2.833E-01  0.000E+00  0.000E+00  1.02513E+03  3.256E+00  4.721E+01  4.811E+00 -4.120E-02
   2   13    5     8     2    2.2564E+02 -3.1835E+00   2.2911E+02  2.833E-01  0.000E+00  0.000E+00  1.01889E+03  3.268E+00  4.738E+01  4.828E+00 -2.198E-01
   2   13    4     8     3    2.2911E+02 -5.3162E+00   2.3471E+02  2.833E-01  0.000E+00  0.000E+00  1.01267E+03  3.292E+00  4.774E+01  4.865E+00 -3.643E-01
   2   13    3     8     4    2.3471E+02 -6.1391E+00   2.4113E+02  2.833E-01  0.000E+00  0.000E+00  1.00645E+03  3.325E+00  4.821E+01  4.913E+00 -4.165E-01
   2   13    2     8     5    2.4113E+02 -5.2824E+00   2.4669E+02  2.833E-01  0.000E+00  0.000E+00  1.00023E+03  3.357E+00  4.867E+01  4.960E+00 -3.550E-01
   2   13    1     8     6    2.4669E+02 -3.3745E+00   2.5024E+02  1.700E-01  0.000E+00  0.000E+00  9.95255E+02  3.380E+00  4.902E+01  2.997E+00 -3.753E-01
   2    4    5     9     1    0.0000E+00  0.0000E+00   0.0000E+00  0.000E+00  0.000E+00  0.000E+00  1.06000E+03  2.870E-04  2.000E+01  2.000E-03 -5.832E-01
   2    4    5    10     1    0.0000E+00  0.0000E+00   0.0000E+00  0.000E+00  0.000E+00  0.000E+00  1.08000E+03  0.000E+00  2.000E+01  2.000E-03  1.000E+00





     0  LAKE CELLS ARE DRY.

 PERIOD     7     TIME STEP    10     TIME STEP LENGTH  1.7520E+05
 PERIOD TIME  1.7520E+06     TOTAL SIMULATION TIME  1.7520E+07


                 HYDROLOGIC BUDGET SUMMARIES FOR SIMULATED LAKES
     (ALL FLUID FLUXES ARE VOLUMES ADDED TO THE LAKE DURING PRESENT TIME STEP)
     ----------------------------------------------------------------------------------------
 LAKE    STAGE         VOLUME     VOL. CHANGE      PRECIP     EVAPORATION    SPECIFIED RUNOFF     COMPUTED RUNOFF    TOTAL RUNOFF
   1  1.074512E+03  2.058310E+03 -1.265671E+02  0.000000E+00  2.272560E+02   0.000000E+00          0.000000E+00      0.000000E+00

            GROUND WATER            SURFACE WATER        WATER          UZF INFIL.
 LAKE    INFLOW     OUTFLOW      INFLOW     OUTFLOW       USE        FROM LAKE
   1  0.0000E+00  0.0000E+00  0.0000E+00  0.0000E+00  0.0000E+00       5.1202E+02

      CONNECTED LAKE   TIME-STEP         STAGE-CHANGE          PERCENT
 LAKE    INFLUX      SURFACE AREA   TIME STEP  CUMULATIVE    DISCREPANCY
   1   0.0000E+00     3.2428E+04  -7.6351E-04  1.2298E-02     -82.880
 --------------------------------------------------------------------------------



            CUMULATIVE HYDROLOGIC BUDGET SUMMARIES FOR SIMULATED LAKES
     (ALL FLUID FLUXES ARE SUMS OF VOLUMES ADDED TO THE LAKE SINCE INITIAL TIME)
     ---------------------------------------------------------------------------
 LAKE       PRECIP       EVAP     SPECIFIED RUNOFF   COMPUTED RUNOFF   TOTAL RUNOFF
   1     0.0000E+00  1.6049E+06       0.0000E+00       0.0000E+00       0.0000E+00

            GROUND WATER            SURFACE WATER       UZF INFIL.
 LAKE    INFLOW     OUTFLOW      INFLOW     OUTFLOW     FROM LAKE
   1  0.0000E+00  0.0000E+00  1.9325E+08  4.8782E+07    1.4290E+08

         WATER    CONNECTED LAKE   CHANGE       PERCENT
 LAKE     USE         INFLUX       IN VOL.    DISCREPANCY
   1   0.0000E+00   0.0000E+00   2.0583E+03     -0.022
 --------------------------------------------------------------------------------

 UBDSV3 SAVING "           GW ET" ON UNIT  61 AT TIME STEP    10, STRESS PERIOD   7
 UBDSV3 SAVING "    UZF RECHARGE" ON UNIT  61 AT TIME STEP    10, STRESS PERIOD   7
 UBDSV3 SAVING " SURFACE LEAKAGE" ON UNIT  61 AT TIME STEP    10, STRESS PERIOD   7
 UBDSV3 SAVING "       HORT+DUNN" ON UNIT  61 AT TIME STEP    10, STRESS PERIOD   7
 UBDSV3 SAVING "  STORAGE CHANGE" ON UNIT  61 AT TIME STEP    10, STRESS PERIOD   7


UNSATURATED ZONE PACKAGE VOLUMETRIC BUDGET FOR  TIME STEP    10 STRESS PERIOD    7
  ------------------------------------------------------------------------------



     CUMULATIVE VOLUMES      L**3       RATES FOR THIS TIME STEP      L**3/T
     ------------------                 ------------------------

           IN:                                      IN:
           ---                                      ---
        INFILTRATION =  1364457757.8369          INFILTRATION =          25.2762

          OUT:                                     OUT:
          ----                                     ----
              UZF ET =  1191995069.1870                UZF ET =          62.1815
        UZF RECHARGE =   635901848.1757          UZF RECHARGE =          14.0645

            IN - OUT =  -463439159.5258              IN - OUT =         -50.9698

          STORAGE:                                 STORAGE:
          --------                                 --------
      STORAGE CHANGE =  -463490798.5533        STORAGE CHANGE =         -50.9601

 PERCENT DISCREPANCY IS DIFFERENCE BETWEEN IN-OUT MINUS CHANGE IN STORAGE
 DIVIDED BY THE AVERAGE OF IN AND OUT TIMES 100

 PERCENT DISCREPANCY =           0.00     PERCENT DISCREPANCY =          -0.01






1
  VOLUMETRIC BUDGET FOR ENTIRE MODEL AT END OF TIME STEP   10, STRESS PERIOD   7
  ------------------------------------------------------------------------------

     CUMULATIVE VOLUMES      L**3       RATES FOR THIS TIME STEP      L**3/T
     ------------------                 ------------------------

           IN:                                      IN:
           ---                                      ---
             STORAGE =   136635872.0000               STORAGE =          21.3731
       CONSTANT HEAD =           0.0000         CONSTANT HEAD =           0.0000
               WELLS =           0.0000                 WELLS =           0.0000
     HEAD DEP BOUNDS =     3757874.7500       HEAD DEP BOUNDS =           0.2143
      STREAM LEAKAGE =  1292938624.0000        STREAM LEAKAGE =          69.6587
       LAKE  SEEPAGE =           0.0000         LAKE  SEEPAGE =           0.0000
        UZF RECHARGE =   635901760.0000          UZF RECHARGE =          14.0645
               GW ET =           0.0000                 GW ET =           0.0000
     SURFACE LEAKAGE =           0.0000       SURFACE LEAKAGE =           0.0000

            TOTAL IN =  2069234176.0000              TOTAL IN =         105.3106

          OUT:                                     OUT:
          ----                                     ----
             STORAGE =  1211995648.0000               STORAGE =          47.2537
       CONSTANT HEAD =           0.0000         CONSTANT HEAD =           0.0000
               WELLS =   271560000.0000                 WELLS =          20.0000
     HEAD DEP BOUNDS =     5266822.5000       HEAD DEP BOUNDS =           0.3185
      STREAM LEAKAGE =   317173088.0000        STREAM LEAKAGE =          24.1879
       LAKE  SEEPAGE =           0.0000         LAKE  SEEPAGE =           0.0000
        UZF RECHARGE =           0.0000          UZF RECHARGE =           0.0000
               GW ET =   233339536.0000                 GW ET =          16.5587
     SURFACE LEAKAGE =    67286960.0000       SURFACE LEAKAGE =           1.5084

           TOTAL OUT =  2106621952.0000             TOTAL OUT =         109.8271

            IN - OUT =   -37387776.0000              IN - OUT =          -4.5165

 PERCENT DISCREPANCY =          -1.79     PERCENT DISCREPANCY =          -4.20






         TIME SUMMARY AT END OF TIME STEP   10 IN STRESS PERIOD    7
                    SECONDS     MINUTES      HOURS       DAYS        YEARS
                    -----------------------------------------------------------
   TIME STEP LENGTH 1.75200E+05  2920.0      48.667      2.0278     5.55175E-03
 STRESS PERIOD TIME 1.75200E+06  29200.      486.67      20.278     5.55175E-02
         TOTAL TIME 1.75200E+07 2.92000E+05  4866.7      202.78     0.55518    
1
 
 SOLVING FOR HEAD 
                                                   Max.-Head-Change                         Max.-Flux-Residual
  Residual-Control   Outer-Iter.   Inner-Iter.     Column Row Layer    Maximum-Head-Change  Column Row Layer    Maximum-Flux-Residual          L2-NORM 
          0                 1           2             5    4     2      -0.1743535506E+00       5    4    2        -0.5158045057E+01      0.1034275792E+02
          0                 2           2             2    2     2       0.8947348575E-02       2    2    2         0.2699210625E+00      0.6461311150E+00
          0                 3           1             2    2     2      -0.5132918717E-03       2    2    2        -0.1584742236E-01      0.3074249319E-01

    ------------------------------------------------
       NWT REQUIRED            3 OUTER ITERATIONS 
       AND A TOTAL OF          5 INNER ITERATIONS.
    ------------------------------------------------

 NO OUTPUT CONTROL FOR STRESS PERIOD    7   TIME STEP   11
 
 SOLVING FOR HEAD 
                                                   Max.-Head-Change                         Max.-Flux-Residual
  Residual-Control   Outer-Iter.   Inner-Iter.     Column Row Layer    Maximum-Head-Change  Column Row Layer    Maximum-Flux-Residual          L2-NORM 
          0                 1           2             5    4     2      -0.1586181609E+00       5    4    2        -0.4676505952E+01      0.9429682931E+01
          0                 2           2             2    2     2       0.7825052022E-02       2    2    2         0.2364789620E+00      0.5759182156E+00
          0                 3           1             2    2     2      -0.4490195003E-03       2    2    2        -0.1387080436E-01      0.2700693967E-01

    ------------------------------------------------
       NWT REQUIRED            3 OUTER ITERATIONS 
       AND A TOTAL OF          5 INNER ITERATIONS.
    ------------------------------------------------

 NO OUTPUT CONTROL FOR STRESS PERIOD    7   TIME STEP   12
 
 SOLVING FOR HEAD 
                                                   Max.-Head-Change                         Max.-Flux-Residual
  Residual-Control   Outer-Iter.   Inner-Iter.     Column Row Layer    Maximum-Head-Change  Column Row Layer    Maximum-Flux-Residual          L2-NORM 
          0                 1           2             5    4     2      -0.1334289123E+00       5    4    2        -0.3919664191E+01      0.8233121553E+01
          0                 2           2             2    2     2       0.5500549835E-02       2    2    2         0.1677974807E+00      0.4870363837E+00
          0                 3           1             2    2     2      -0.3167159404E-03       2    2    2        -0.9824449879E-02      0.2174559754E-01

    ------------------------------------------------
       NWT REQUIRED            3 OUTER ITERATIONS 
       AND A TOTAL OF          5 INNER ITERATIONS.
    ------------------------------------------------

 NO OUTPUT CONTROL FOR STRESS PERIOD    7   TIME STEP   13
 
 SOLVING FOR HEAD 
                                                   Max.-Head-Change                         Max.-Flux-Residual
  Residual-Control   Outer-Iter.   Inner-Iter.     Column Row Layer    Maximum-Head-Change  Column Row Layer    Maximum-Flux-Residual          L2-NORM 
          0                 1           2             3    2     2       0.1093397048E+00       5    4    2        -0.2966295416E+01      0.7331611833E+01
          0                 2           2             3    4     2      -0.5054199220E-02       3    2    2        -0.1370018677E+00      0.4370252577E+00
          0                 3           1             3    3     2       0.2742471651E-03       3    3    2         0.8113494681E-02      0.1882566256E-01

    ------------------------------------------------
       NWT REQUIRED            3 OUTER ITERATIONS 
       AND A TOTAL OF          5 INNER ITERATIONS.
    ------------------------------------------------

 NO OUTPUT CONTROL FOR STRESS PERIOD    7   TIME STEP   14
 
 SOLVING FOR HEAD 
                                                   Max.-Head-Change                         Max.-Flux-Residual
  Residual-Control   Outer-Iter.   Inner-Iter.     Column Row Layer    Maximum-Head-Change  Column Row Layer    Maximum-Flux-Residual          L2-NORM 
          0                 1           2             3    2     2       0.1058020127E+00       3    2    2         0.2832090220E+01      0.7018305866E+01
          0                 2           2             3    2     2      -0.4919991050E-02       3    3    2        -0.1357380986E+00      0.4262472022E+00
          0                 3           1             3    3     2       0.2782106021E-03       3    3    2         0.8241319569E-02      0.1837081972E-01

    ------------------------------------------------
       NWT REQUIRED            3 OUTER ITERATIONS 
       AND A TOTAL OF          5 INNER ITERATIONS.
    ------------------------------------------------

 OUTPUT CONTROL FOR STRESS PERIOD    7   TIME STEP   15
    PRINT BUDGET
    PRINT HEAD FOR ALL LAYERS
    SAVE HEAD FOR ALL LAYERS
    SAVE BUDGET

            WELLS   PERIOD    7   STEP  15
 WELL      1   LAYER   2   ROW     6   COL     4   RATE    -2.00000    
 WELL      2   LAYER   2   ROW     6   COL     5   RATE    -2.00000    
 WELL      3   LAYER   2   ROW     7   COL     4   RATE    -2.00000    
 WELL      4   LAYER   2   ROW     7   COL     5   RATE    -2.00000    
 WELL      5   LAYER   2   ROW     8   COL     4   RATE    -2.00000    
 WELL      6   LAYER   2   ROW     8   COL     5   RATE    -2.00000    
 WELL      7   LAYER   2   ROW     9   COL     4   RATE    -2.00000    
 WELL      8   LAYER   2   ROW     9   COL     5   RATE    -2.00000    
 WELL      9   LAYER   2   ROW    10   COL     4   RATE    -2.00000    
 WELL     10   LAYER   2   ROW    10   COL     5   RATE    -2.00000    

  HEAD DEP BOUNDS   PERIOD    7   STEP    15
 BOUNDARY      1   LAYER   2   ROW    13   COL     1   RATE   -0.312015    
 BOUNDARY      2   LAYER   2   ROW    14   COL     9   RATE    0.214264    



 STREAM LISTING     PERIOD      7   STEP       15

 LAYER ROW COL. STREAM  RCH.  FLOW INTO     FLOW TO   FLOW OUT OF   OVRLND.     DIRECT     STREAM       STREAM     STREAM     STREAM   STREAMBED  STREAMBED
                SEG.NO.  NO.  STRM. RCH.    AQUIFER    STRM. RCH.    RUNOFF     PRECIP       ET          HEAD       DEPTH      WIDTH   CONDCTNC.   GRADIENT

   2    1    1     1     1    1.7500E+02  2.0031E+00   1.7300E+02  0.000E+00  0.000E+00  0.000E+00  1.09526E+03  2.213E+00  2.709E+01  1.219E+00  5.476E-01
   2    2    2     1     2    1.7300E+02  7.1244E+00   1.6587E+02  0.000E+00  0.000E+00  0.000E+00  1.09025E+03  2.191E+00  2.682E+01  1.878E+00  1.265E+00
   2    3    3     1     3    1.6587E+02  8.1518E+00   1.5772E+02  0.000E+00  0.000E+00  0.000E+00  1.08457E+03  2.153E+00  2.636E+01  1.582E+00  1.718E+00
   2    3    4     1     4    1.5772E+02  7.3465E+00   1.5037E+02  0.000E+00  0.000E+00  0.000E+00  1.07952E+03  2.114E+00  2.588E+01  1.436E+00  1.705E+00
   2    4    5     2     1    1.4037E+02  0.0000E+00   1.4037E+02  0.000E+00  0.000E+00  0.000E+00  1.07530E+03  3.364E+00  1.200E+01  7.800E-01  2.121E+00
   2    5    6     2     2    1.4037E+02  3.7798E+00   1.3659E+02  0.000E+00  0.000E+00  0.000E+00  1.06981E+03  3.300E+00  1.200E+01  6.000E-01  2.100E+00
   2    6    6     2     3    1.3659E+02  3.7461E+00   1.3285E+02  0.000E+00  0.000E+00  0.000E+00  1.06504E+03  3.244E+00  1.200E+01  6.000E-01  2.081E+00
   2    7    6     2     4    1.3285E+02  3.7124E+00   1.2914E+02  0.000E+00  0.000E+00  0.000E+00  1.06026E+03  3.187E+00  1.200E+01  6.000E-01  2.062E+00
   2    8    6     2     5    1.2914E+02  3.6785E+00   1.2546E+02  0.000E+00  0.000E+00  0.000E+00  1.05549E+03  3.131E+00  1.200E+01  6.000E-01  2.044E+00
   2    3    5     3     1    1.0000E+01  2.8252E+00   7.1748E+00  0.000E+00  0.000E+00  0.000E+00  1.07555E+03  1.909E+00  9.636E+00  7.227E-01  1.955E+00
   2    3    6     3     2    7.1748E+00  2.4905E+00   4.6843E+00  0.000E+00  0.000E+00  0.000E+00  1.07264E+03  1.727E+00  8.909E+00  6.682E-01  1.864E+00
   2    3    7     3     3    4.6843E+00  1.9718E+00   2.7125E+00  0.000E+00  0.000E+00  0.000E+00  1.06987E+03  1.555E+00  8.218E+00  5.547E-01  1.777E+00
   2    4    8     3     4    2.7125E+00  2.2567E+00   4.5579E-01  0.000E+00  0.000E+00  0.000E+00  1.06682E+03  1.364E+00  7.455E+00  6.709E-01  1.682E+00
   2    5    8     3     5    4.5579E-01  4.5579E-01   0.0000E+00  0.000E+00  0.000E+00  0.000E+00  1.06362E+03  0.000E+00  6.655E+00  4.991E-01  1.582E+00
   2    6    8     3     6    0.0000E+00  0.0000E+00   0.0000E+00  0.000E+00  0.000E+00  0.000E+00  1.06055E+03  0.000E+00  6.145E+00  1.844E-01  1.000E+00
   2    5   10     4     1    1.0000E+01  9.0525E-01   9.0947E+00  0.000E+00  0.000E+00  0.000E+00  1.07835E+03  6.210E-01  1.000E+01  2.500E-01  1.207E+00
   2    5    9     4     2    9.0947E+00  1.7835E+00   7.3113E+00  0.000E+00  0.000E+00  0.000E+00  1.07148E+03  5.670E-01  1.000E+01  5.000E-01  1.189E+00
   2    6    8     4     3    7.3113E+00  1.2257E+00   6.0855E+00  0.000E+00  0.000E+00  0.000E+00  1.06368E+03  5.021E-01  1.000E+01  3.500E-01  1.167E+00
   2    6    8     5     1    6.0855E+00  1.4716E+00   4.6139E+00  0.000E+00  0.000E+00  0.000E+00  1.05854E+03  5.396E-01  1.039E+01  4.158E-01  1.180E+00
   2    7    7     5     2    4.6139E+00  1.4897E+00   3.1242E+00  0.000E+00  0.000E+00  0.000E+00  1.05398E+03  4.817E-01  8.557E+00  4.279E-01  1.161E+00
   2    8    7     5     3    3.1242E+00  8.2855E-01   2.2957E+00  0.000E+00  0.000E+00  0.000E+00  1.04968E+03  4.253E-01  6.911E+00  2.419E-01  1.142E+00
   2    8    6     5     4    2.2957E+00  4.9455E-01   1.8011E+00  0.000E+00  0.000E+00  0.000E+00  1.04664E+03  3.856E-01  5.843E+00  1.461E-01  1.129E+00
   2    9    6     6     1    1.2726E+02  3.6820E+00   1.2358E+02  0.000E+00  0.000E+00  0.000E+00  1.04586E+03  3.137E+00  1.200E+01  6.000E-01  2.046E+00
   2   10    7     6     2    1.2358E+02  3.6474E+00   1.1993E+02  0.000E+00  0.000E+00  0.000E+00  1.04126E+03  3.079E+00  1.200E+01  6.000E-01  2.026E+00
   2   11    7     6     3    1.1993E+02  2.9623E+00   1.1697E+02  0.000E+00  0.000E+00  0.000E+00  1.03666E+03  3.026E+00  1.200E+01  6.000E-01  1.646E+00
   2   12    7     6     4    1.1697E+02  1.5237E+00   1.1544E+02  0.000E+00  0.000E+00  0.000E+00  1.03208E+03  2.990E+00  1.200E+01  6.000E-01  8.465E-01
   2   13    7     6     5    1.1544E+02 -1.4247E-01   1.1559E+02  0.000E+00  0.000E+00  0.000E+00  1.02889E+03  2.979E+00  1.200E+01  2.400E-01 -1.979E-01
   2   14    9     7     1    1.5000E+02  2.8123E+00   1.4719E+02  0.000E+00  0.000E+00  0.000E+00  1.03986E+03  2.284E+00  5.528E+01  5.591E+00  1.677E-01
   2   13    8     7     2    1.4719E+02  3.5379E+00   1.4365E+02  0.000E+00  0.000E+00  0.000E+00  1.03477E+03  2.267E+00  5.520E+01  6.141E+00  1.920E-01
   2   13    7     7     3    1.4365E+02  1.0698E+00   1.4258E+02  0.000E+00  0.000E+00  0.000E+00  1.02967E+03  2.254E+00  5.515E+01  5.577E+00  6.395E-02
   2   13    6     8     1    2.5817E+02  1.1878E+00   2.5717E+02  1.918E-01  0.000E+00  0.000E+00  1.02530E+03  3.425E+00  4.967E+01  5.061E+00  7.823E-02
   2   13    5     8     2    2.5717E+02 -2.0044E+00   2.5937E+02  1.918E-01  0.000E+00  0.000E+00  1.01905E+03  3.428E+00  4.971E+01  5.066E+00 -1.319E-01
   2   13    4     8     3    2.5937E+02 -4.6037E+00   2.6416E+02  1.918E-01  0.000E+00  0.000E+00  1.01282E+03  3.446E+00  4.997E+01  5.092E+00 -3.014E-01
   2   13    3     8     4    2.6416E+02 -5.4263E+00   2.6978E+02  1.918E-01  0.000E+00  0.000E+00  1.00660E+03  3.472E+00  5.035E+01  5.130E+00 -3.526E-01
   2   13    2     8     5    2.6978E+02 -3.7046E+00   2.7368E+02  1.918E-01  0.000E+00  0.000E+00  1.00037E+03  3.496E+00  5.069E+01  5.165E+00 -2.391E-01
   2   13    1     8     6    2.7368E+02 -2.5660E+00   2.7636E+02  1.151E-01  0.000E+00  0.000E+00  9.95387E+02  3.512E+00  5.092E+01  3.113E+00 -2.747E-01
   2    4    5     9     1    0.0000E+00  0.0000E+00   0.0000E+00  0.000E+00  0.000E+00  0.000E+00  1.06000E+03  2.162E-04  2.000E+01  2.000E-03 -3.638E-01
   2    4    5    10     1    0.0000E+00  0.0000E+00   0.0000E+00  0.000E+00  0.000E+00  0.000E+00  1.08000E+03  0.000E+00  2.000E+01  2.000E-03  1.000E+00





     0  LAKE CELLS ARE DRY.

 PERIOD     7     TIME STEP    15     TIME STEP LENGTH  1.7520E+05
 PERIOD TIME  2.6280E+06     TOTAL SIMULATION TIME  1.8396E+07


                 HYDROLOGIC BUDGET SUMMARIES FOR SIMULATED LAKES
     (ALL FLUID FLUXES ARE VOLUMES ADDED TO THE LAKE DURING PRESENT TIME STEP)
     ----------------------------------------------------------------------------------------
 LAKE    STAGE         VOLUME     VOL. CHANGE      PRECIP     EVAPORATION    SPECIFIED RUNOFF     COMPUTED RUNOFF    TOTAL RUNOFF
   1  1.074509E+03  1.556362E+03 -8.111475E+01  0.000000E+00  1.718364E+02   0.000000E+00          0.000000E+00      0.000000E+00

            GROUND WATER            SURFACE WATER        WATER          UZF INFIL.
 LAKE    INFLOW     OUTFLOW      INFLOW     OUTFLOW       USE        FROM LAKE
   1  0.0000E+00  0.0000E+00  0.0000E+00  0.0000E+00  0.0000E+00       2.9161E+02

      CONNECTED LAKE   TIME-STEP         STAGE-CHANGE          PERCENT
 LAKE    INFLUX      SURFACE AREA   TIME STEP  CUMULATIVE    DISCREPANCY
   1   0.0000E+00     2.4520E+04  -4.6666E-04  9.2990E-03     -82.498
 --------------------------------------------------------------------------------



            CUMULATIVE HYDROLOGIC BUDGET SUMMARIES FOR SIMULATED LAKES
     (ALL FLUID FLUXES ARE SUMS OF VOLUMES ADDED TO THE LAKE SINCE INITIAL TIME)
     ---------------------------------------------------------------------------
 LAKE       PRECIP       EVAP     SPECIFIED RUNOFF   COMPUTED RUNOFF   TOTAL RUNOFF
   1     0.0000E+00  1.6058E+06       0.0000E+00       0.0000E+00       0.0000E+00

            GROUND WATER            SURFACE WATER       UZF INFIL.
 LAKE    INFLOW     OUTFLOW      INFLOW     OUTFLOW     FROM LAKE
   1  0.0000E+00  0.0000E+00  1.9325E+08  4.8782E+07    1.4291E+08

         WATER    CONNECTED LAKE   CHANGE       PERCENT
 LAKE     USE         INFLUX       IN VOL.    DISCREPANCY
   1   0.0000E+00   0.0000E+00   1.5564E+03     -0.024
 --------------------------------------------------------------------------------

 UBDSV3 SAVING "           GW ET" ON UNIT  61 AT TIME STEP    15, STRESS PERIOD   7
 UBDSV3 SAVING "    UZF RECHARGE" ON UNIT  61 AT TIME STEP    15, STRESS PERIOD   7
 UBDSV3 SAVING " SURFACE LEAKAGE" ON UNIT  61 AT TIME STEP    15, STRESS PERIOD   7
 UBDSV3 SAVING "       HORT+DUNN" ON UNIT  61 AT TIME STEP    15, STRESS PERIOD   7
 UBDSV3 SAVING "  STORAGE CHANGE" ON UNIT  61 AT TIME STEP    15, STRESS PERIOD   7


UNSATURATED ZONE PACKAGE VOLUMETRIC BUDGET FOR  TIME STEP    15 STRESS PERIOD    7
  ------------------------------------------------------------------------------



     CUMULATIVE VOLUMES      L**3       RATES FOR THIS TIME STEP      L**3/T
     ------------------                 ------------------------

           IN:                                      IN:
           ---                                      ---
        INFILTRATION =  1386616383.8296          INFILTRATION =          25.2947

          OUT:                                     OUT:
          ----                                     ----
              UZF ET =  1245486236.3566                UZF ET =          59.3418
        UZF RECHARGE =   647007873.3415          UZF RECHARGE =          12.0062

            IN - OUT =  -505877725.8685              IN - OUT =         -46.0533

          STORAGE:                                 STORAGE:
          --------                                 --------
      STORAGE CHANGE =  -505923698.5227        STORAGE CHANGE =         -46.0430

 PERCENT DISCREPANCY IS DIFFERENCE BETWEEN IN-OUT MINUS CHANGE IN STORAGE
 DIVIDED BY THE AVERAGE OF IN AND OUT TIMES 100

 PERCENT DISCREPANCY =           0.00     PERCENT DISCREPANCY =          -0.01






1
              HEAD IN LAYER   1 AT END OF TIME STEP    15 IN STRESS PERIOD    7
  -----------------------------------------------------------------------------

           1       2       3       4       5       6       7       8       9      10
 ...................................................................................
   1  6999.00 6999.00 6999.00 6999.00 6999.00 6999.00 6999.00 6999.00 6999.00 6999.00
   2  6999.00 6999.00 6999.00 6999.00 6999.00 6999.00 6999.00 6999.00 6999.00 6999.00
   3  6999.00 6999.00 6999.00 6999.00 6999.00 6999.00 6999.00 6999.00 6999.00 6999.00
   4  6999.00 6999.00 6999.00 6999.00 1074.51 6999.00 6999.00 6999.00 6999.00 6999.00
   5  6999.00 6999.00 6999.00 6999.00 6999.00 6999.00 6999.00 6999.00 6999.00 6999.00
   6  6999.00 6999.00 6999.00 6999.00 6999.00 6999.00 6999.00 6999.00 6999.00 6999.00
   7  6999.00 6999.00 6999.00 6999.00 6999.00 6999.00 6999.00 6999.00 6999.00 6999.00
   8  6999.00 6999.00 6999.00 6999.00 6999.00 6999.00 6999.00 6999.00 6999.00 6999.00
   9  6999.00 6999.00 6999.00 6999.00 6999.00 6999.00 6999.00 6999.00 6999.00 6999.00
  10  6999.00 6999.00 6999.00 6999.00 6999.00 6999.00 6999.00 6999.00 6999.00 6999.00
  11  6999.00 6999.00 6999.00 6999.00 6999.00 6999.00 6999.00 6999.00 6999.00 6999.00
  12  6999.00 6999.00 6999.00 6999.00 6999.00 6999.00 6999.00 6999.00 6999.00 6999.00
  13  6999.00 6999.00 6999.00 6999.00 6999.00 6999.00 6999.00 6999.00 6999.00 6999.00
  14  6999.00 6999.00 6999.00 6999.00 6999.00 6999.00 6999.00 6999.00 6999.00 6999.00
  15  6999.00 6999.00 6999.00 6999.00 6999.00 6999.00 6999.00 6999.00 6999.00 6999.00
1
              HEAD IN LAYER   2 AT END OF TIME STEP    15 IN STRESS PERIOD    7
  -----------------------------------------------------------------------------

           1       2       3       4       5       6       7       8       9      10
 ...................................................................................
   1  1093.62 1087.67 6999.00 6999.00 6999.00 6999.00 6999.00 6999.00 6999.00 6999.00
   2  1087.24 1086.46 1077.81 6999.00 6999.00 1067.39 1066.85 1064.93 6999.00 6999.00
   3  6999.00 1073.68 1073.79 1070.22 1068.83 1066.92 1065.57 1063.53 6999.00 6999.00
   4  1061.51 1062.50 1063.25 1061.68 1061.09 1058.80 1057.37 1059.67 1057.97 6999.00
   5  1057.62 1054.86 1053.75 1053.65 1053.91 1053.93 1052.02 1052.47 1055.40 1057.60
   6  1053.50 1049.53 1047.42 1046.88 1047.53 1049.45 1049.07 1050.20 1052.30 1057.19
   7  1050.56 1044.66 1042.25 1041.51 1042.52 1045.16 1045.71 1047.03 1049.02 6999.00
   8  6999.00 1039.19 1037.54 1036.86 1037.97 1040.84 1041.45 1043.31 1045.27 6999.00
   9  6999.00 1033.42 1032.52 1032.19 1033.41 1036.25 1037.03 1037.66 1040.65 6999.00
  10  6999.00 1027.48 1027.37 1027.81 1029.28 1031.90 1034.19 1034.09 1036.98 1040.23
  11  6999.00 1019.74 1020.82 1023.76 1025.99 1028.75 1031.73 1032.03 1035.06 6999.00
  12  1003.20 1009.86 1014.09 1018.63 1022.41 1026.25 1029.54 1031.30 1034.69 6999.00
  13   996.21 1001.09 1007.65 1013.73 1019.45 1025.07 1029.48 1034.19 1036.74 6999.00
  14  6999.00 1006.98 1010.96 1015.90 1021.03 1025.99 1030.43 1035.25 1039.36 6999.00
  15  6999.00 6999.00 1018.42 1021.24 1024.89 1027.97 6999.00 6999.00 6999.00 6999.00

 HEAD WILL BE SAVED ON UNIT   58 AT END OF TIME STEP   15, STRESS PERIOD    7
1
  VOLUMETRIC BUDGET FOR ENTIRE MODEL AT END OF TIME STEP   15, STRESS PERIOD   7
  ------------------------------------------------------------------------------

     CUMULATIVE VOLUMES      L**3       RATES FOR THIS TIME STEP      L**3/T
     ------------------                 ------------------------

           IN:                                      IN:
           ---                                      ---
             STORAGE =   148498560.0000               STORAGE =           6.2685
       CONSTANT HEAD =           0.0000         CONSTANT HEAD =           0.0000
               WELLS =           0.0000                 WELLS =           0.0000
     HEAD DEP BOUNDS =     3945582.2500       HEAD DEP BOUNDS =           0.2143
      STREAM LEAKAGE =  1356350848.0000        STREAM LEAKAGE =          78.1648
       LAKE  SEEPAGE =           0.0000         LAKE  SEEPAGE =           0.0000
        UZF RECHARGE =   647007808.0000          UZF RECHARGE =          12.0062
               GW ET =           0.0000                 GW ET =           0.0000
     SURFACE LEAKAGE =           0.0000       SURFACE LEAKAGE =           0.0000

            TOTAL IN =  2155802880.0000              TOTAL IN =          96.6538

          OUT:                                     OUT:
          ----                                     ----
             STORAGE =  1250825472.0000               STORAGE =          45.2585
       CONSTANT HEAD =           0.0000         CONSTANT HEAD =           0.0000
               WELLS =   289080000.0000                 WELLS =          20.0000
     HEAD DEP BOUNDS =     5541869.0000       HEAD DEP BOUNDS =           0.3120
      STREAM LEAKAGE =   335779776.0000        STREAM LEAKAGE =          18.4474
       LAKE  SEEPAGE =           0.0000         LAKE  SEEPAGE =           0.0000
        UZF RECHARGE =           0.0000          UZF RECHARGE =           0.0000
               GW ET =   247841760.0000                 GW ET =          16.5804
     SURFACE LEAKAGE =    68168080.0000       SURFACE LEAKAGE =           1.0176

           TOTAL OUT =  2197237248.0000             TOTAL OUT =         101.6159

            IN - OUT =   -41434368.0000              IN - OUT =          -4.9621

 PERCENT DISCREPANCY =          -1.90     PERCENT DISCREPANCY =          -5.01






         TIME SUMMARY AT END OF TIME STEP   15 IN STRESS PERIOD    7
                    SECONDS     MINUTES      HOURS       DAYS        YEARS
                    -----------------------------------------------------------
   TIME STEP LENGTH 1.75200E+05  2920.0      48.667      2.0278     5.55175E-03
 STRESS PERIOD TIME 2.62800E+06  43800.      730.00      30.417     8.32763E-02
         TOTAL TIME 1.83960E+07 3.06600E+05  5110.0      212.92     0.58293    
1
1
                            STRESS PERIOD NO.    8, LENGTH =   2628000.    
                            -----------------------------------------------

                              NUMBER OF TIME STEPS =    15

                               MULTIPLIER FOR DELT =     1.000

                            INITIAL TIME STEP SIZE =   175200.0    

      0 WELLS

 REUSING NON-PARAMETER GHB CELLS FROM LAST STRESS PERIOD

      2 GHB CELLS

 REUSING STREAM SEGMENT DATA FROM LAST STRESS PERIOD



            AREAL INFILTRATION RATE
 READING ON UNIT   19 WITH FORMAT: (10F4.0)            

            1           2           3           4           5           6           7           8           9          10
 ........................................................................................................................
   1   5.0000E-09  1.0000E-08   0.000       0.000       0.000       0.000       0.000       0.000       0.000       0.000    
   2   1.0000E-08  5.0000E-09  1.0000E-08   0.000       0.000      4.0000E-08  4.0000E-08  2.5000E-08   0.000       0.000    
   3    0.000      2.5000E-08  5.0000E-09  5.0000E-09  4.0000E-08  4.0000E-08  2.5000E-08  2.5000E-08   0.000       0.000    
   4   4.0000E-08  2.5000E-08  5.0000E-09  5.0000E-09  5.0000E-09  5.0000E-09  5.0000E-09  5.0000E-09  1.0000E-08   0.000    
   5   4.0000E-08  2.5000E-08  5.0000E-09  5.0000E-09  5.0000E-09  5.0000E-09  5.0000E-09  5.0000E-09  5.0000E-09  5.0000E-09
   6   4.0000E-08  2.5000E-08  2.5000E-08  1.0000E-08  1.0000E-08  5.0000E-09  5.0000E-09  5.0000E-09  5.0000E-09  2.5000E-08
   7   4.0000E-08  2.5000E-08  2.5000E-08  1.0000E-08  1.0000E-08  5.0000E-09  5.0000E-09  1.0000E-08  1.0000E-08   0.000    
   8    0.000      2.5000E-08  2.5000E-08  1.0000E-08  1.0000E-08  5.0000E-09  5.0000E-09  1.0000E-08  2.5000E-08   0.000    
   9    0.000      2.5000E-08  2.5000E-08  1.0000E-08  1.0000E-08  5.0000E-09  5.0000E-09  1.0000E-08  2.5000E-08   0.000    
  10    0.000      2.5000E-08  2.5000E-08  1.0000E-08  1.0000E-08  5.0000E-09  5.0000E-09  1.0000E-08  2.5000E-08  4.0000E-08
  11    0.000      5.0000E-09  5.0000E-09  5.0000E-09  5.0000E-09  5.0000E-09  5.0000E-09  1.0000E-08  2.5000E-08   0.000    
  12   5.0000E-09  5.0000E-09  5.0000E-09  5.0000E-09  5.0000E-09  5.0000E-09  5.0000E-09  5.0000E-09  1.0000E-08   0.000    
  13   5.0000E-09  5.0000E-09  1.0000E-08  1.0000E-08  1.0000E-08  1.0000E-08  1.0000E-08  5.0000E-09  5.0000E-09   0.000    
  14    0.000      1.0000E-08  2.5000E-08  2.5000E-08  2.5000E-08  2.5000E-08  2.5000E-08  1.0000E-08  5.0000E-09   0.000    
  15    0.000       0.000      4.0000E-08  4.0000E-08  4.0000E-08  4.0000E-08   0.000       0.000       0.000       0.000    

USING ET RATE FROM PREVIOUS STRESS PERIOD. CURRENT PERIOD IS:       8

 USING ET EXTINCTION DEPTH FROM PREVIOUS STRESS PERIOD. CURRENT PERIOD IS:       8

 USING EXTINCTION WATER CONTENT FROM PREVIOUS STRESS PERIOD. CURRENT PERIOD IS:       8




 If any subsequent steady-state stress periods, min. and max. stages for each lake will be read in Record 9a.




 REUSING LAKE CONFIGURATION DATA FROM LAST STRESS PERIOD


 LAKE       PRECIP     EVAP     RUNOFF   WITHDRAW   BOTTOM     AREA
----------------------------------------------------------------------
   1     0.000E+00 4.000E-08 0.000E+00  0.000E+00 1.074E+03 2.500E+07




         C               INTERFACE CONDUCTANCES BETWEEN LAKE AND AQUIFER CELLS
   L     O          (IF TYPE = 6, CONDUCTANCE (L^2/T) IS BETWEEN AQUIFER CELL AND OVERLYING LAKE CELL.)
   A     L  L  T    (IF TYPE = 1 TO 4, CONDUCTANCES ARE PER UNIT SATURATED THICKNESS (L/T).)
   Y  R  U  A  Y
   E  O  M  K  P                        LAKEBED      C O N D U C T A N C E S
   R  W  N  E  E     DELTA Y   DELTA X  LEAKANCE   LAKEBED   AQUIFER  COMBINED
 _______________________________________________________________________________
   1  4  4  1  2    5.00E+03  5.00E+03  5.00E-02  2.50E+02  6.00E-03  6.00E-03
   1  3  5  1  3    5.00E+03  5.00E+03  5.00E-02  2.50E+02  1.20E-03  1.20E-03
   2  4  5  1  6    5.00E+03  5.00E+03  5.00E-02  1.25E+06  9.42E+00  9.42E+00
   1  5  5  1  4    5.00E+03  5.00E+03  5.00E-02  2.50E+02  6.00E-03  6.00E-03
   1  4  6  1  1    5.00E+03  5.00E+03  5.00E-02  2.50E+02  6.00E-03  6.00E-03
      LAKE     INFLOWING STREAM SEGMENT
         1                  9

 MAXIMUM NUMBER OF STREAMS INFLOWING TO A LAKE IS    1

      LAKE     OUTFLOWING STREAM SEGMENT
         1                 10

 MAXIMUM NUMBER OF STREAMS OUTFLOWING FROM A LAKE IS    1

 
 SOLVING FOR HEAD 
                                                   Max.-Head-Change                         Max.-Flux-Residual
  Residual-Control   Outer-Iter.   Inner-Iter.     Column Row Layer    Maximum-Head-Change  Column Row Layer    Maximum-Flux-Residual          L2-NORM 
          0                 1           2             4    6     2       0.1185686700E+00       4    6    2         0.3235018772E+01      0.1059071309E+02
          0                 2           2             5   10     2      -0.6635739221E-02       5   10    2        -0.1967699604E+00      0.5952783438E+00
          0                 3           1             3    3     2       0.2810129306E-03       3    3    2         0.8332937212E-02      0.2001205357E-01

    ------------------------------------------------
       NWT REQUIRED            3 OUTER ITERATIONS 
       AND A TOTAL OF          5 INNER ITERATIONS.
    ------------------------------------------------

 NO OUTPUT CONTROL FOR STRESS PERIOD    8   TIME STEP    1
 
 SOLVING FOR HEAD 
                                                   Max.-Head-Change                         Max.-Flux-Residual
  Residual-Control   Outer-Iter.   Inner-Iter.     Column Row Layer    Maximum-Head-Change  Column Row Layer    Maximum-Flux-Residual          L2-NORM 
          0                 1           2             3    3     2       0.1535791954E+00       3    3    2         0.4121883794E+01      0.1311206371E+02
          0                 2           2             3    3     2      -0.1443050204E-01       3    3    2        -0.4069062321E+00      0.9502340250E+00
          0                 3           1             3    3     2       0.8089347702E-03       3    3    2         0.2391038549E-01      0.4479800871E-01

    ------------------------------------------------
       NWT REQUIRED            3 OUTER ITERATIONS 
       AND A TOTAL OF          5 INNER ITERATIONS.
    ------------------------------------------------

 NO OUTPUT CONTROL FOR STRESS PERIOD    8   TIME STEP    2
 
 SOLVING FOR HEAD 
                                                   Max.-Head-Change                         Max.-Flux-Residual
  Residual-Control   Outer-Iter.   Inner-Iter.     Column Row Layer    Maximum-Head-Change  Column Row Layer    Maximum-Flux-Residual          L2-NORM 
          0                 1           2             3    3     2       0.3655769543E+00       3    3    2         0.9919148244E+01      0.2623363917E+02
          0                 2           2             3    3     2      -0.3441254188E-01       5   13    2        -0.1195066374E+01      0.2672071487E+01
          0                 3           2             3    3     2       0.1923434252E-02       3    3    2         0.5678207655E-01      0.1293326058E+00
          0                 4           1             3    3     2      -0.3680224344E-04       3    3    2        -0.1130443834E-02      0.2363806551E-02

    ------------------------------------------------
       NWT REQUIRED            4 OUTER ITERATIONS 
       AND A TOTAL OF          7 INNER ITERATIONS.
    ------------------------------------------------

 NO OUTPUT CONTROL FOR STRESS PERIOD    8   TIME STEP    3
 
 SOLVING FOR HEAD 
                                                   Max.-Head-Change                         Max.-Flux-Residual
  Residual-Control   Outer-Iter.   Inner-Iter.     Column Row Layer    Maximum-Head-Change  Column Row Layer    Maximum-Flux-Residual          L2-NORM 
          0                 1           2             3    3     2       0.3513554600E+00       3    3    2         0.9522064797E+01      0.2313279372E+02
          0                 2           2             3    3     2      -0.3309416200E-01       3    3    2        -0.9366673880E+00      0.2027318545E+01
          0                 3           2             4   13     2      -0.2370522645E-02       4   13    2        -0.5498488948E-01      0.1190611730E+00
          0                 4           1             4   13     2       0.1294419134E-03       4   13    2         0.3066531908E-02      0.3875524427E-02

    ------------------------------------------------
       NWT REQUIRED            4 OUTER ITERATIONS 
       AND A TOTAL OF          7 INNER ITERATIONS.
    ------------------------------------------------

 NO OUTPUT CONTROL FOR STRESS PERIOD    8   TIME STEP    4
 
 SOLVING FOR HEAD 
                                                   Max.-Head-Change                         Max.-Flux-Residual
  Residual-Control   Outer-Iter.   Inner-Iter.     Column Row Layer    Maximum-Head-Change  Column Row Layer    Maximum-Flux-Residual          L2-NORM 
          0                 1           2             3    3     2       0.3379817829E+00       3    3    2         0.9149461985E+01      0.2090613135E+02
          0                 2           2             3    3     2      -0.3185903204E-01       3    3    2        -0.9010286959E+00      0.1760185859E+01
          0                 3           2             3   13     2       0.2635150492E-02       3   13    2         0.1364735637E+00      0.1642329252E+00
          0                 4           1             3   13     2      -0.4081077906E-04       3   13    2        -0.2236745293E-02      0.3095737916E-02

    ------------------------------------------------
       NWT REQUIRED            4 OUTER ITERATIONS 
       AND A TOTAL OF          7 INNER ITERATIONS.
    ------------------------------------------------

 OUTPUT CONTROL FOR STRESS PERIOD    8   TIME STEP    5
    PRINT BUDGET
    SAVE BUDGET

  HEAD DEP BOUNDS   PERIOD    8   STEP     5
 BOUNDARY      1   LAYER   2   ROW    13   COL     1   RATE   -0.324640    
 BOUNDARY      2   LAYER   2   ROW    14   COL     9   RATE    0.214254    



 STREAM LISTING     PERIOD      8   STEP        5

 LAYER ROW COL. STREAM  RCH.  FLOW INTO     FLOW TO   FLOW OUT OF   OVRLND.     DIRECT     STREAM       STREAM     STREAM     STREAM   STREAMBED  STREAMBED
                SEG.NO.  NO.  STRM. RCH.    AQUIFER    STRM. RCH.    RUNOFF     PRECIP       ET          HEAD       DEPTH      WIDTH   CONDCTNC.   GRADIENT

   2    1    1     1     1    6.2700E+02  5.2906E+00   6.2171E+02  0.000E+00  0.000E+00  0.000E+00  1.09661E+03  3.562E+00  4.381E+01  1.971E+00  8.946E-01
   2    2    2     1     2    6.2171E+02  1.3396E+01   6.0831E+02  0.000E+00  0.000E+00  0.000E+00  1.09160E+03  3.542E+00  4.356E+01  3.049E+00  1.464E+00
   2    3    3     1     3    6.0831E+02  1.6853E+01   5.9146E+02  0.000E+00  0.000E+00  0.000E+00  1.08593E+03  3.509E+00  4.315E+01  2.589E+00  2.170E+00
   2    3    4     1     4    5.9146E+02  1.5346E+01   5.7611E+02  0.000E+00  0.000E+00  0.000E+00  1.08088E+03  3.474E+00  4.271E+01  2.371E+00  2.158E+00
   2    4    5     2     1    5.6611E+02  0.0000E+00   5.6611E+02  0.000E+00  0.000E+00  0.000E+00  1.07975E+03  7.815E+00  1.200E+01  7.800E-01  3.605E+00
   2    5    6     2     2    5.6611E+02  6.4517E+00   5.5966E+02  0.000E+00  0.000E+00  0.000E+00  1.07426E+03  7.753E+00  1.200E+01  6.000E-01  3.584E+00
   2    6    6     2     3    5.5966E+02  6.4193E+00   5.5324E+02  0.000E+00  0.000E+00  0.000E+00  1.06949E+03  7.699E+00  1.200E+01  6.000E-01  3.566E+00
   2    7    6     2     4    5.5324E+02  6.3868E+00   5.4686E+02  0.000E+00  0.000E+00  0.000E+00  1.06472E+03  7.645E+00  1.200E+01  6.000E-01  3.548E+00
   2    8    6     2     5    5.4686E+02  6.3544E+00   5.4050E+02  0.000E+00  0.000E+00  0.000E+00  1.05995E+03  7.591E+00  1.200E+01  6.000E-01  3.530E+00
   2    3    5     3     1    1.0000E+01  2.8252E+00   7.1748E+00  0.000E+00  0.000E+00  0.000E+00  1.07555E+03  1.909E+00  9.636E+00  7.227E-01  1.955E+00
   2    3    6     3     2    7.1748E+00  2.4905E+00   4.6843E+00  0.000E+00  0.000E+00  0.000E+00  1.07264E+03  1.727E+00  8.909E+00  6.682E-01  1.864E+00
   2    3    7     3     3    4.6843E+00  1.9718E+00   2.7125E+00  0.000E+00  0.000E+00  0.000E+00  1.06987E+03  1.555E+00  8.218E+00  5.547E-01  1.777E+00
   2    4    8     3     4    2.7125E+00  2.2567E+00   4.5579E-01  0.000E+00  0.000E+00  0.000E+00  1.06682E+03  1.364E+00  7.455E+00  6.709E-01  1.682E+00
   2    5    8     3     5    4.5579E-01  4.5579E-01   0.0000E+00  0.000E+00  0.000E+00  0.000E+00  1.06362E+03  0.000E+00  6.655E+00  4.991E-01  1.582E+00
   2    6    8     3     6    0.0000E+00  0.0000E+00   0.0000E+00  0.000E+00  0.000E+00  0.000E+00  1.06055E+03  0.000E+00  6.145E+00  1.844E-01  1.000E+00
   2    5   10     4     1    1.0000E+01  9.0525E-01   9.0947E+00  0.000E+00  0.000E+00  0.000E+00  1.07835E+03  6.210E-01  1.000E+01  2.500E-01  1.207E+00
   2    5    9     4     2    9.0947E+00  1.7835E+00   7.3113E+00  0.000E+00  0.000E+00  0.000E+00  1.07148E+03  5.670E-01  1.000E+01  5.000E-01  1.189E+00
   2    6    8     4     3    7.3113E+00  1.2257E+00   6.0855E+00  0.000E+00  0.000E+00  0.000E+00  1.06368E+03  5.021E-01  1.000E+01  3.500E-01  1.167E+00
   2    6    8     5     1    6.0855E+00  1.4716E+00   4.6139E+00  0.000E+00  0.000E+00  0.000E+00  1.05854E+03  5.396E-01  1.039E+01  4.158E-01  1.180E+00
   2    7    7     5     2    4.6139E+00  1.4897E+00   3.1242E+00  0.000E+00  0.000E+00  0.000E+00  1.05398E+03  4.817E-01  8.557E+00  4.279E-01  1.161E+00
   2    8    7     5     3    3.1242E+00  8.2855E-01   2.2957E+00  0.000E+00  0.000E+00  0.000E+00  1.04968E+03  4.253E-01  6.911E+00  2.419E-01  1.142E+00
   2    8    6     5     4    2.2957E+00  4.9455E-01   1.8011E+00  0.000E+00  0.000E+00  0.000E+00  1.04664E+03  3.856E-01  5.843E+00  1.461E-01  1.129E+00
   2    9    6     6     1    5.4230E+02  6.3816E+00   5.3592E+02  0.000E+00  0.000E+00  0.000E+00  1.05036E+03  7.636E+00  1.200E+01  6.000E-01  3.545E+00
   2   10    7     6     2    5.3592E+02  6.3486E+00   5.2957E+02  0.000E+00  0.000E+00  0.000E+00  1.04576E+03  7.581E+00  1.200E+01  6.000E-01  3.527E+00
   2   11    7     6     3    5.2957E+02  5.4724E+00   5.2410E+02  0.000E+00  0.000E+00  0.000E+00  1.04117E+03  7.530E+00  1.200E+01  6.000E-01  3.040E+00
   2   12    7     6     4    5.2410E+02  4.0704E+00   5.2003E+02  0.000E+00  0.000E+00  0.000E+00  1.03658E+03  7.488E+00  1.200E+01  6.000E-01  2.261E+00
   2   13    7     6     5    5.2003E+02  9.1105E-01   5.1912E+02  0.000E+00  0.000E+00  0.000E+00  1.03338E+03  7.466E+00  1.200E+01  2.400E-01  1.265E+00
   2   14    9     7     1    1.5000E+02  2.8109E+00   1.4719E+02  0.000E+00  0.000E+00  0.000E+00  1.03986E+03  2.284E+00  5.528E+01  5.591E+00  1.676E-01
   2   13    8     7     2    1.4719E+02  3.5241E+00   1.4367E+02  0.000E+00  0.000E+00  0.000E+00  1.03477E+03  2.267E+00  5.520E+01  6.141E+00  1.913E-01
   2   13    7     7     3    1.4367E+02  5.3640E-01   1.4313E+02  0.000E+00  0.000E+00  0.000E+00  1.02968E+03  2.256E+00  5.515E+01  5.577E+00  3.206E-02
   2   13    6     8     1    6.6225E+02  6.2670E+00   6.5803E+02  2.050E+00  0.000E+00  0.000E+00  1.02668E+03  4.800E+00  6.138E+01  6.284E+00  3.324E-01
   2   13    5     8     2    6.5803E+02  3.0329E+00   6.5705E+02  2.050E+00  0.000E+00  0.000E+00  1.02042E+03  4.793E+00  6.135E+01  6.281E+00  1.610E-01
   2   13    4     8     3    6.5705E+02  2.0618E-01   6.5889E+02  2.050E+00  0.000E+00  0.000E+00  1.01417E+03  4.794E+00  6.135E+01  6.282E+00  1.094E-02
   2   13    3     8     4    6.5889E+02 -4.3736E-01   6.6138E+02  2.050E+00  0.000E+00  0.000E+00  1.00793E+03  4.800E+00  6.138E+01  6.284E+00 -2.320E-02
   2   13    2     8     5    6.6138E+02  6.2280E-01   6.6281E+02  2.050E+00  0.000E+00  0.000E+00  1.00168E+03  4.805E+00  6.140E+01  6.287E+00  3.302E-02
   2   13    1     8     6    6.6281E+02  5.2848E-01   6.6351E+02  1.230E+00  0.000E+00  0.000E+00  9.96683E+02  4.808E+00  6.141E+01  3.773E+00  4.669E-02
   2    4    5     9     1    0.0000E+00  0.0000E+00   0.0000E+00  0.000E+00  0.000E+00  0.000E+00  1.06000E+03  2.180E-04  2.000E+01  2.000E-03 -3.689E-01
   2    4    5    10     1    0.0000E+00  0.0000E+00   0.0000E+00  0.000E+00  0.000E+00  0.000E+00  1.08000E+03  0.000E+00  2.000E+01  2.000E-03  1.000E+00





     0  LAKE CELLS ARE DRY.

 PERIOD     8     TIME STEP     5     TIME STEP LENGTH  1.7520E+05
 PERIOD TIME  8.7600E+05     TOTAL SIMULATION TIME  1.9272E+07


                 HYDROLOGIC BUDGET SUMMARIES FOR SIMULATED LAKES
     (ALL FLUID FLUXES ARE VOLUMES ADDED TO THE LAKE DURING PRESENT TIME STEP)
     ----------------------------------------------------------------------------------------
 LAKE    STAGE         VOLUME     VOL. CHANGE      PRECIP     EVAPORATION    SPECIFIED RUNOFF     COMPUTED RUNOFF    TOTAL RUNOFF
   1  1.074508E+03  1.394898E+03  4.720093E+00  0.000000E+00  1.540094E+02   0.000000E+00          0.000000E+00      0.000000E+00

            GROUND WATER            SURFACE WATER        WATER          UZF INFIL.
 LAKE    INFLOW     OUTFLOW      INFLOW     OUTFLOW       USE        FROM LAKE
   1  0.0000E+00  0.0000E+00  0.0000E+00  0.0000E+00  0.0000E+00       2.2903E+02

      CONNECTED LAKE   TIME-STEP         STAGE-CHANGE          PERCENT
 LAKE    INFLUX      SURFACE AREA   TIME STEP  CUMULATIVE    DISCREPANCY
   1   0.0000E+00     2.1976E+04   3.3470E-05  8.3343E-03    -101.232
 --------------------------------------------------------------------------------



            CUMULATIVE HYDROLOGIC BUDGET SUMMARIES FOR SIMULATED LAKES
     (ALL FLUID FLUXES ARE SUMS OF VOLUMES ADDED TO THE LAKE SINCE INITIAL TIME)
     ---------------------------------------------------------------------------
 LAKE       PRECIP       EVAP     SPECIFIED RUNOFF   COMPUTED RUNOFF   TOTAL RUNOFF
   1     0.0000E+00  1.6066E+06       0.0000E+00       0.0000E+00       0.0000E+00

            GROUND WATER            SURFACE WATER       UZF INFIL.
 LAKE    INFLOW     OUTFLOW      INFLOW     OUTFLOW     FROM LAKE
   1  0.0000E+00  0.0000E+00  1.9325E+08  4.8782E+07    1.4291E+08

         WATER    CONNECTED LAKE   CHANGE       PERCENT
 LAKE     USE         INFLUX       IN VOL.    DISCREPANCY
   1   0.0000E+00   0.0000E+00   1.3949E+03     -0.024
 --------------------------------------------------------------------------------

 UBDSV3 SAVING "           GW ET" ON UNIT  61 AT TIME STEP     5, STRESS PERIOD   8
 UBDSV3 SAVING "    UZF RECHARGE" ON UNIT  61 AT TIME STEP     5, STRESS PERIOD   8
 UBDSV3 SAVING " SURFACE LEAKAGE" ON UNIT  61 AT TIME STEP     5, STRESS PERIOD   8
 UBDSV3 SAVING "       HORT+DUNN" ON UNIT  61 AT TIME STEP     5, STRESS PERIOD   8
 UBDSV3 SAVING "  STORAGE CHANGE" ON UNIT  61 AT TIME STEP     5, STRESS PERIOD   8


UNSATURATED ZONE PACKAGE VOLUMETRIC BUDGET FOR  TIME STEP     5 STRESS PERIOD    8
  ------------------------------------------------------------------------------



     CUMULATIVE VOLUMES      L**3       RATES FOR THIS TIME STEP      L**3/T
     ------------------                 ------------------------

           IN:                                      IN:
           ---                                      ---
        INFILTRATION =  1423416895.2032          INFILTRATION =          41.8542

          OUT:                                     OUT:
          ----                                     ----
              UZF ET =  1287310482.4654                UZF ET =          36.7303
        UZF RECHARGE =   658844558.8428          UZF RECHARGE =          13.4776

            IN - OUT =  -522738146.1050              IN - OUT =          -8.3536

          STORAGE:                                 STORAGE:
          --------                                 --------
      STORAGE CHANGE =  -522777439.0394        STORAGE CHANGE =          -8.3332

 PERCENT DISCREPANCY IS DIFFERENCE BETWEEN IN-OUT MINUS CHANGE IN STORAGE
 DIVIDED BY THE AVERAGE OF IN AND OUT TIMES 100

 PERCENT DISCREPANCY =           0.00     PERCENT DISCREPANCY =          -0.04






1
  VOLUMETRIC BUDGET FOR ENTIRE MODEL AT END OF TIME STEP    5, STRESS PERIOD   8
  ------------------------------------------------------------------------------

     CUMULATIVE VOLUMES      L**3       RATES FOR THIS TIME STEP      L**3/T
     ------------------                 ------------------------

           IN:                                      IN:
           ---                                      ---
             STORAGE =   150092064.0000               STORAGE =           0.2304
       CONSTANT HEAD =           0.0000         CONSTANT HEAD =           0.0000
               WELLS =           0.0000                 WELLS =           0.0000
     HEAD DEP BOUNDS =     4133266.5000       HEAD DEP BOUNDS =           0.2143
      STREAM LEAKAGE =  1460340864.0000        STREAM LEAKAGE =         135.4097
       LAKE  SEEPAGE =           0.0000         LAKE  SEEPAGE =           0.0000
        UZF RECHARGE =   658844416.0000          UZF RECHARGE =          13.4776
               GW ET =           0.0000                 GW ET =           0.0000
     SURFACE LEAKAGE =           0.0000       SURFACE LEAKAGE =           0.0000

            TOTAL IN =  2273410560.0000              TOTAL IN =         149.3320

          OUT:                                     OUT:
          ----                                     ----
             STORAGE =  1349785088.0000               STORAGE =         128.4991
       CONSTANT HEAD =           0.0000         CONSTANT HEAD =           0.0000
               WELLS =   289080000.0000                 WELLS =           0.0000
     HEAD DEP BOUNDS =     5819785.5000       HEAD DEP BOUNDS =           0.3246
      STREAM LEAKAGE =   340926368.0000        STREAM LEAKAGE =           0.4374
       LAKE  SEEPAGE =           0.0000         LAKE  SEEPAGE =           0.0000
        UZF RECHARGE =           0.0000          UZF RECHARGE =           0.0000
               GW ET =   262728864.0000                 GW ET =          17.4215
     SURFACE LEAKAGE =    72868400.0000       SURFACE LEAKAGE =          11.0830

           TOTAL OUT =  2321208576.0000             TOTAL OUT =         157.7657

            IN - OUT =   -47798016.0000              IN - OUT =          -8.4338

 PERCENT DISCREPANCY =          -2.08     PERCENT DISCREPANCY =          -5.49






         TIME SUMMARY AT END OF TIME STEP    5 IN STRESS PERIOD    8
                    SECONDS     MINUTES      HOURS       DAYS        YEARS
                    -----------------------------------------------------------
   TIME STEP LENGTH 1.75200E+05  2920.0      48.667      2.0278     5.55175E-03
 STRESS PERIOD TIME 8.76000E+05  14600.      243.33      10.139     2.77588E-02
         TOTAL TIME 1.92720E+07 3.21200E+05  5353.3      223.06     0.61069    
1
 
 SOLVING FOR HEAD 
                                                   Max.-Head-Change                         Max.-Flux-Residual
  Residual-Control   Outer-Iter.   Inner-Iter.     Column Row Layer    Maximum-Head-Change  Column Row Layer    Maximum-Flux-Residual          L2-NORM 
          0                 1           2             4   13     2      -0.1903267862E+00       4   13    2        -0.4373776741E+01      0.1298873652E+02
          0                 2           2             4   13     2       0.3047199558E-01       4   13    2         0.1416597486E+01      0.1640427080E+01
          0                 3           1             4   13     2      -0.1857199136E-02       4   13    2        -0.9122235316E-01      0.9971746951E-01
          0                 4           1             2   13     2      -0.3580358128E-04       4   13    2         0.1623161177E-02      0.2296186786E-02

    ------------------------------------------------
       NWT REQUIRED            4 OUTER ITERATIONS 
       AND A TOTAL OF          6 INNER ITERATIONS.
    ------------------------------------------------

 NO OUTPUT CONTROL FOR STRESS PERIOD    8   TIME STEP    6
 
 SOLVING FOR HEAD 
                                                   Max.-Head-Change                         Max.-Flux-Residual
  Residual-Control   Outer-Iter.   Inner-Iter.     Column Row Layer    Maximum-Head-Change  Column Row Layer    Maximum-Flux-Residual          L2-NORM 
          0                 1           2             3    2     2       0.1188453995E+00       3    2    2         0.3159417986E+01      0.1158426598E+02
          0                 2           2             3    3     2      -0.8742264816E-02       3    3    2        -0.2440629291E+00      0.7375107190E+00
          0                 3           1             3    3     2       0.4951699739E-03       3    3    2         0.1463643826E-01      0.3090174866E-01

    ------------------------------------------------
       NWT REQUIRED            3 OUTER ITERATIONS 
       AND A TOTAL OF          5 INNER ITERATIONS.
    ------------------------------------------------

 NO OUTPUT CONTROL FOR STRESS PERIOD    8   TIME STEP    7
 
 SOLVING FOR HEAD 
                                                   Max.-Head-Change                         Max.-Flux-Residual
  Residual-Control   Outer-Iter.   Inner-Iter.     Column Row Layer    Maximum-Head-Change  Column Row Layer    Maximum-Flux-Residual          L2-NORM 
          0                 1           2             3    2     2       0.1159226935E+00       3    2    2         0.3079676546E+01      0.1090136775E+02
          0                 2           2             3    3     2      -0.8636905080E-02       3    3    2        -0.2411567454E+00      0.6997614803E+00
          0                 3           1             3    3     2       0.4888678469E-03       3    3    2         0.1444753893E-01      0.2900722429E-01

    ------------------------------------------------
       NWT REQUIRED            3 OUTER ITERATIONS 
       AND A TOTAL OF          5 INNER ITERATIONS.
    ------------------------------------------------

 NO OUTPUT CONTROL FOR STRESS PERIOD    8   TIME STEP    8
 
 SOLVING FOR HEAD 
                                                   Max.-Head-Change                         Max.-Flux-Residual
  Residual-Control   Outer-Iter.   Inner-Iter.     Column Row Layer    Maximum-Head-Change  Column Row Layer    Maximum-Flux-Residual          L2-NORM 
          0                 1           2             3    2     2       0.1130391284E+00       3    2    2         0.3001256273E+01      0.1050157568E+02
          0                 2           2             3    3     2      -0.8522425320E-02       3    3    2        -0.2380246334E+00      0.6781122092E+00
          0                 3           1             3    3     2       0.4820113532E-03       3    3    2         0.1424709956E-01      0.2799890482E-01

    ------------------------------------------------
       NWT REQUIRED            3 OUTER ITERATIONS 
       AND A TOTAL OF          5 INNER ITERATIONS.
    ------------------------------------------------

 NO OUTPUT CONTROL FOR STRESS PERIOD    8   TIME STEP    9
 
 SOLVING FOR HEAD 
                                                   Max.-Head-Change                         Max.-Flux-Residual
  Residual-Control   Outer-Iter.   Inner-Iter.     Column Row Layer    Maximum-Head-Change  Column Row Layer    Maximum-Flux-Residual          L2-NORM 
          0                 1           2             3    2     2       0.1106470482E+00       3    2    2         0.2930316828E+01      0.1029740540E+02
          0                 2           2             3    3     2      -0.9021144590E-02       3    3    2        -0.2522378644E+00      0.6754221414E+00
          0                 3           1             3    3     2       0.5095630792E-03       3    3    2         0.1505587974E-01      0.2840411114E-01

    ------------------------------------------------
       NWT REQUIRED            3 OUTER ITERATIONS 
       AND A TOTAL OF          5 INNER ITERATIONS.
    ------------------------------------------------

 OUTPUT CONTROL FOR STRESS PERIOD    8   TIME STEP   10
    PRINT BUDGET
    SAVE BUDGET

  HEAD DEP BOUNDS   PERIOD    8   STEP    10
 BOUNDARY      1   LAYER   2   ROW    13   COL     1   RATE   -0.322683    
 BOUNDARY      2   LAYER   2   ROW    14   COL     9   RATE    0.214466    



 STREAM LISTING     PERIOD      8   STEP       10

 LAYER ROW COL. STREAM  RCH.  FLOW INTO     FLOW TO   FLOW OUT OF   OVRLND.     DIRECT     STREAM       STREAM     STREAM     STREAM   STREAMBED  STREAMBED
                SEG.NO.  NO.  STRM. RCH.    AQUIFER    STRM. RCH.    RUNOFF     PRECIP       ET          HEAD       DEPTH      WIDTH   CONDCTNC.   GRADIENT

   2    1    1     1     1    2.8645E+02  2.6015E+00   2.8385E+02  0.000E+00  0.000E+00  0.000E+00  1.09571E+03  2.660E+00  3.263E+01  1.468E+00  5.907E-01
   2    2    2     1     2    2.8385E+02  7.7857E+00   2.7606E+02  0.000E+00  0.000E+00  0.000E+00  1.09070E+03  2.641E+00  3.240E+01  2.268E+00  1.144E+00
   2    3    3     1     3    2.7606E+02  1.0766E+01   2.6529E+02  0.000E+00  0.000E+00  0.000E+00  1.08503E+03  2.609E+00  3.199E+01  1.920E+00  1.870E+00
   2    3    4     1     4    2.6529E+02  9.7495E+00   2.5554E+02  0.000E+00  0.000E+00  0.000E+00  1.07998E+03  2.571E+00  3.153E+01  1.750E+00  1.857E+00
   2    4    5     2     1    2.4554E+02  0.0000E+00   2.4554E+02  0.000E+00  0.000E+00  0.000E+00  1.07665E+03  4.721E+00  1.200E+01  7.800E-01  2.574E+00
   2    5    6     2     2    2.4554E+02  4.5951E+00   2.4095E+02  0.000E+00  0.000E+00  0.000E+00  1.07117E+03  4.658E+00  1.200E+01  6.000E-01  2.553E+00
   2    6    6     2     3    2.4095E+02  4.5626E+00   2.3639E+02  0.000E+00  0.000E+00  0.000E+00  1.06640E+03  4.604E+00  1.200E+01  6.000E-01  2.535E+00
   2    7    6     2     4    2.3639E+02  4.5301E+00   2.3186E+02  0.000E+00  0.000E+00  0.000E+00  1.06163E+03  4.550E+00  1.200E+01  6.000E-01  2.517E+00
   2    8    6     2     5    2.3186E+02  4.4975E+00   2.2736E+02  0.000E+00  0.000E+00  0.000E+00  1.05685E+03  4.496E+00  1.200E+01  6.000E-01  2.499E+00
   2    3    5     3     1    1.0000E+01  2.8252E+00   7.1748E+00  0.000E+00  0.000E+00  0.000E+00  1.07555E+03  1.909E+00  9.636E+00  7.227E-01  1.955E+00
   2    3    6     3     2    7.1748E+00  2.4905E+00   4.6843E+00  0.000E+00  0.000E+00  0.000E+00  1.07264E+03  1.727E+00  8.909E+00  6.682E-01  1.864E+00
   2    3    7     3     3    4.6843E+00  1.9718E+00   2.7125E+00  0.000E+00  0.000E+00  0.000E+00  1.06987E+03  1.555E+00  8.218E+00  5.547E-01  1.777E+00
   2    4    8     3     4    2.7125E+00  2.2567E+00   4.5579E-01  0.000E+00  0.000E+00  0.000E+00  1.06682E+03  1.364E+00  7.455E+00  6.709E-01  1.682E+00
   2    5    8     3     5    4.5579E-01  4.5579E-01   0.0000E+00  0.000E+00  0.000E+00  0.000E+00  1.06362E+03  0.000E+00  6.655E+00  4.991E-01  1.582E+00
   2    6    8     3     6    0.0000E+00  0.0000E+00   0.0000E+00  0.000E+00  0.000E+00  0.000E+00  1.06055E+03  0.000E+00  6.145E+00  1.844E-01  1.000E+00
   2    5   10     4     1    1.0000E+01  9.0525E-01   9.0947E+00  0.000E+00  0.000E+00  0.000E+00  1.07835E+03  6.210E-01  1.000E+01  2.500E-01  1.207E+00
   2    5    9     4     2    9.0947E+00  1.7835E+00   7.3113E+00  0.000E+00  0.000E+00  0.000E+00  1.07148E+03  5.670E-01  1.000E+01  5.000E-01  1.189E+00
   2    6    8     4     3    7.3113E+00  1.2257E+00   6.0855E+00  0.000E+00  0.000E+00  0.000E+00  1.06368E+03  5.021E-01  1.000E+01  3.500E-01  1.167E+00
   2    6    8     5     1    6.0855E+00  1.4716E+00   4.6139E+00  0.000E+00  0.000E+00  0.000E+00  1.05854E+03  5.396E-01  1.039E+01  4.158E-01  1.180E+00
   2    7    7     5     2    4.6139E+00  1.4897E+00   3.1242E+00  0.000E+00  0.000E+00  0.000E+00  1.05398E+03  4.817E-01  8.557E+00  4.279E-01  1.161E+00
   2    8    7     5     3    3.1242E+00  8.2855E-01   2.2957E+00  0.000E+00  0.000E+00  0.000E+00  1.04968E+03  4.253E-01  6.911E+00  2.419E-01  1.142E+00
   2    8    6     5     4    2.2957E+00  4.9455E-01   1.8011E+00  0.000E+00  0.000E+00  0.000E+00  1.04664E+03  3.856E-01  5.843E+00  1.461E-01  1.129E+00
   2    9    6     6     1    2.2916E+02  4.5078E+00   2.2465E+02  0.000E+00  0.000E+00  0.000E+00  1.04724E+03  4.513E+00  1.200E+01  6.000E-01  2.504E+00
   2   10    7     6     2    2.2465E+02  4.4747E+00   2.2018E+02  0.000E+00  0.000E+00  0.000E+00  1.04264E+03  4.458E+00  1.200E+01  6.000E-01  2.486E+00
   2   11    7     6     3    2.2018E+02  3.5390E+00   2.1664E+02  0.000E+00  0.000E+00  0.000E+00  1.03804E+03  4.408E+00  1.200E+01  6.000E-01  1.966E+00
   2   12    7     6     4    2.1664E+02  2.1799E+00   2.1446E+02  0.000E+00  0.000E+00  0.000E+00  1.03346E+03  4.372E+00  1.200E+01  6.000E-01  1.211E+00
   2   13    7     6     5    2.1446E+02  1.6532E-01   2.1429E+02  0.000E+00  0.000E+00  0.000E+00  1.03027E+03  4.358E+00  1.200E+01  2.400E-01  2.296E-01
   2   14    9     7     1    1.5000E+02  2.8417E+00   1.4716E+02  0.000E+00  0.000E+00  0.000E+00  1.03986E+03  2.284E+00  5.528E+01  5.591E+00  1.694E-01
   2   13    8     7     2    1.4716E+02  3.5289E+00   1.4363E+02  0.000E+00  0.000E+00  0.000E+00  1.03477E+03  2.267E+00  5.520E+01  6.141E+00  1.916E-01
   2   13    7     7     3    1.4363E+02  5.4208E-01   1.4309E+02  0.000E+00  0.000E+00  0.000E+00  1.02968E+03  2.256E+00  5.515E+01  5.577E+00  3.240E-02
   2   13    6     8     1    3.5738E+02  1.4517E+00   3.5677E+02  8.356E-01  0.000E+00  0.000E+00  1.02575E+03  3.875E+00  5.618E+01  5.725E+00  8.452E-02
   2   13    5     8     2    3.5677E+02 -1.4641E+00   3.5907E+02  8.356E-01  0.000E+00  0.000E+00  1.01950E+03  3.878E+00  5.623E+01  5.730E+00 -8.516E-02
   2   13    4     8     3    3.5907E+02 -3.6416E+00   3.6354E+02  8.356E-01  0.000E+00  0.000E+00  1.01327E+03  3.892E+00  5.644E+01  5.751E+00 -2.111E-01
   2   13    3     8     4    3.6354E+02 -4.5695E+00   3.6895E+02  8.356E-01  0.000E+00  0.000E+00  1.00704E+03  3.912E+00  5.673E+01  5.781E+00 -2.635E-01
   2   13    2     8     5    3.6895E+02 -3.5753E+00   3.7336E+02  8.356E-01  0.000E+00  0.000E+00  1.00081E+03  3.932E+00  5.702E+01  5.810E+00 -2.051E-01
   2   13    1     8     6    3.7336E+02 -2.3435E+00   3.7620E+02  5.014E-01  0.000E+00  0.000E+00  9.95822E+02  3.947E+00  5.723E+01  3.499E+00 -2.232E-01
   2    4    5     9     1    0.0000E+00  0.0000E+00   0.0000E+00  0.000E+00  0.000E+00  0.000E+00  1.06000E+03  1.999E-04  2.000E+01  2.000E-03 -3.191E-01
   2    4    5    10     1    0.0000E+00  0.0000E+00   0.0000E+00  0.000E+00  0.000E+00  0.000E+00  1.08000E+03  0.000E+00  2.000E+01  2.000E-03  1.000E+00





     0  LAKE CELLS ARE DRY.

 PERIOD     8     TIME STEP    10     TIME STEP LENGTH  1.7520E+05
 PERIOD TIME  1.7520E+06     TOTAL SIMULATION TIME  2.0148E+07


                 HYDROLOGIC BUDGET SUMMARIES FOR SIMULATED LAKES
     (ALL FLUID FLUXES ARE VOLUMES ADDED TO THE LAKE DURING PRESENT TIME STEP)
     ----------------------------------------------------------------------------------------
 LAKE    STAGE         VOLUME     VOL. CHANGE      PRECIP     EVAPORATION    SPECIFIED RUNOFF     COMPUTED RUNOFF    TOTAL RUNOFF
   1  1.074508E+03  1.322066E+03 -1.758545E+01  0.000000E+00  1.459680E+02   0.000000E+00          0.000000E+00      0.000000E+00

            GROUND WATER            SURFACE WATER        WATER          UZF INFIL.
 LAKE    INFLOW     OUTFLOW      INFLOW     OUTFLOW       USE        FROM LAKE
   1  0.0000E+00  0.0000E+00  0.0000E+00  0.0000E+00  0.0000E+00       2.0712E+02

      CONNECTED LAKE   TIME-STEP         STAGE-CHANGE          PERCENT
 LAKE    INFLUX      SURFACE AREA   TIME STEP  CUMULATIVE    DISCREPANCY
   1   0.0000E+00     2.0829E+04  -1.5755E-04  7.8991E-03     -95.019
 --------------------------------------------------------------------------------



            CUMULATIVE HYDROLOGIC BUDGET SUMMARIES FOR SIMULATED LAKES
     (ALL FLUID FLUXES ARE SUMS OF VOLUMES ADDED TO THE LAKE SINCE INITIAL TIME)
     ---------------------------------------------------------------------------
 LAKE       PRECIP       EVAP     SPECIFIED RUNOFF   COMPUTED RUNOFF   TOTAL RUNOFF
   1     0.0000E+00  1.6074E+06       0.0000E+00       0.0000E+00       0.0000E+00

            GROUND WATER            SURFACE WATER       UZF INFIL.
 LAKE    INFLOW     OUTFLOW      INFLOW     OUTFLOW     FROM LAKE
   1  0.0000E+00  0.0000E+00  1.9325E+08  4.8782E+07    1.4291E+08

         WATER    CONNECTED LAKE   CHANGE       PERCENT
 LAKE     USE         INFLUX       IN VOL.    DISCREPANCY
   1   0.0000E+00   0.0000E+00   1.3221E+03     -0.025
 --------------------------------------------------------------------------------

 UBDSV3 SAVING "           GW ET" ON UNIT  61 AT TIME STEP    10, STRESS PERIOD   8
 UBDSV3 SAVING "    UZF RECHARGE" ON UNIT  61 AT TIME STEP    10, STRESS PERIOD   8
 UBDSV3 SAVING " SURFACE LEAKAGE" ON UNIT  61 AT TIME STEP    10, STRESS PERIOD   8
 UBDSV3 SAVING "       HORT+DUNN" ON UNIT  61 AT TIME STEP    10, STRESS PERIOD   8
 UBDSV3 SAVING "  STORAGE CHANGE" ON UNIT  61 AT TIME STEP    10, STRESS PERIOD   8


UNSATURATED ZONE PACKAGE VOLUMETRIC BUDGET FOR  TIME STEP    10 STRESS PERIOD    8
  ------------------------------------------------------------------------------



     CUMULATIVE VOLUMES      L**3       RATES FOR THIS TIME STEP      L**3/T
     ------------------                 ------------------------

           IN:                                      IN:
           ---                                      ---
        INFILTRATION =  1460184857.8875          INFILTRATION =          42.0045

          OUT:                                     OUT:
          ----                                     ----
              UZF ET =  1315242878.1182                UZF ET =          31.4909
        UZF RECHARGE =   668855404.2270          UZF RECHARGE =          10.9561

            IN - OUT =  -523913424.4576              IN - OUT =          -0.4426

          STORAGE:                                 STORAGE:
          --------                                 --------
      STORAGE CHANGE =  -523947138.7836        STORAGE CHANGE =          -0.4387

 PERCENT DISCREPANCY IS DIFFERENCE BETWEEN IN-OUT MINUS CHANGE IN STORAGE
 DIVIDED BY THE AVERAGE OF IN AND OUT TIMES 100

 PERCENT DISCREPANCY =           0.00     PERCENT DISCREPANCY =          -0.01






1
  VOLUMETRIC BUDGET FOR ENTIRE MODEL AT END OF TIME STEP   10, STRESS PERIOD   8
  ------------------------------------------------------------------------------

     CUMULATIVE VOLUMES      L**3       RATES FOR THIS TIME STEP      L**3/T
     ------------------                 ------------------------

           IN:                                      IN:
           ---                                      ---
             STORAGE =   155291568.0000               STORAGE =           3.0160
       CONSTANT HEAD =           0.0000         CONSTANT HEAD =           0.0000
               WELLS =           0.0000                 WELLS =           0.0000
     HEAD DEP BOUNDS =     4321047.0000       HEAD DEP BOUNDS =           0.2145
      STREAM LEAKAGE =  1539852544.0000        STREAM LEAKAGE =          90.5175
       LAKE  SEEPAGE =           0.0000         LAKE  SEEPAGE =           0.0000
        UZF RECHARGE =   668855296.0000          UZF RECHARGE =          10.9561
               GW ET =           0.0000                 GW ET =           0.0000
     SURFACE LEAKAGE =           0.0000       SURFACE LEAKAGE =           0.0000

            TOTAL IN =  2368320512.0000              TOTAL IN =         104.7041

          OUT:                                     OUT:
          ----                                     ----
             STORAGE =  1414885120.0000               STORAGE =          72.1557
       CONSTANT HEAD =           0.0000         CONSTANT HEAD =           0.0000
               WELLS =   289080000.0000                 WELLS =           0.0000
     HEAD DEP BOUNDS =     6103255.0000       HEAD DEP BOUNDS =           0.3227
      STREAM LEAKAGE =   355174656.0000        STREAM LEAKAGE =          15.5941
       LAKE  SEEPAGE =           0.0000         LAKE  SEEPAGE =           0.0000
        UZF RECHARGE =           0.0000          UZF RECHARGE =           0.0000
               GW ET =   278439584.0000                 GW ET =          18.2208
     SURFACE LEAKAGE =    77739648.0000       SURFACE LEAKAGE =           4.4320

           TOTAL OUT =  2421422592.0000             TOTAL OUT =         110.7253

            IN - OUT =   -53102080.0000              IN - OUT =          -6.0212

 PERCENT DISCREPANCY =          -2.22     PERCENT DISCREPANCY =          -5.59






         TIME SUMMARY AT END OF TIME STEP   10 IN STRESS PERIOD    8
                    SECONDS     MINUTES      HOURS       DAYS        YEARS
                    -----------------------------------------------------------
   TIME STEP LENGTH 1.75200E+05  2920.0      48.667      2.0278     5.55175E-03
 STRESS PERIOD TIME 1.75200E+06  29200.      486.67      20.278     5.55175E-02
         TOTAL TIME 2.01480E+07 3.35800E+05  5596.7      233.19     0.63845    
1
 
 SOLVING FOR HEAD 
                                                   Max.-Head-Change                         Max.-Flux-Residual
  Residual-Control   Outer-Iter.   Inner-Iter.     Column Row Layer    Maximum-Head-Change  Column Row Layer    Maximum-Flux-Residual          L2-NORM 
          0                 1           2             3    2     2       0.1083926635E+00       3    2    2         0.2868318348E+01      0.1014320515E+02
          0                 2           2             3    3     2      -0.9004712812E-02       3    3    2        -0.2518575822E+00      0.6700379775E+00
          0                 3           1             3    3     2       0.5082959082E-03       3    3    2         0.1501874791E-01      0.2837375074E-01

    ------------------------------------------------
       NWT REQUIRED            3 OUTER ITERATIONS 
       AND A TOTAL OF          5 INNER ITERATIONS.
    ------------------------------------------------

 NO OUTPUT CONTROL FOR STRESS PERIOD    8   TIME STEP   11
 
 SOLVING FOR HEAD 
                                                   Max.-Head-Change                         Max.-Flux-Residual
  Residual-Control   Outer-Iter.   Inner-Iter.     Column Row Layer    Maximum-Head-Change  Column Row Layer    Maximum-Flux-Residual          L2-NORM 
          0                 1           2             3    2     2       0.1062281816E+00       3    2    2         0.2809880556E+01      0.1001171716E+02
          0                 2           2             3    3     2      -0.8884486704E-02       3    3    2        -0.2484827696E+00      0.6646402161E+00
          0                 3           1             3    3     2       0.5013929225E-03       3    3    2         0.1480986029E-01      0.2826975845E-01

    ------------------------------------------------
       NWT REQUIRED            3 OUTER ITERATIONS 
       AND A TOTAL OF          5 INNER ITERATIONS.
    ------------------------------------------------

 NO OUTPUT CONTROL FOR STRESS PERIOD    8   TIME STEP   12
 
 SOLVING FOR HEAD 
                                                   Max.-Head-Change                         Max.-Flux-Residual
  Residual-Control   Outer-Iter.   Inner-Iter.     Column Row Layer    Maximum-Head-Change  Column Row Layer    Maximum-Flux-Residual          L2-NORM 
          0                 1           2             3    2     2       0.1030441359E+00       3    2    2         0.2749445159E+01      0.9627148118E+01
          0                 2           2             3    3     2      -0.6144362761E-02       3    3    2        -0.1706364951E+00      0.6148868742E+00
          0                 3           1             3    3     2       0.3475685062E-03       3    3    2         0.1027125329E-01      0.2436524221E-01

    ------------------------------------------------
       NWT REQUIRED            3 OUTER ITERATIONS 
       AND A TOTAL OF          5 INNER ITERATIONS.
    ------------------------------------------------

 NO OUTPUT CONTROL FOR STRESS PERIOD    8   TIME STEP   13
 
 SOLVING FOR HEAD 
                                                   Max.-Head-Change                         Max.-Flux-Residual
  Residual-Control   Outer-Iter.   Inner-Iter.     Column Row Layer    Maximum-Head-Change  Column Row Layer    Maximum-Flux-Residual          L2-NORM 
          0                 1           2             3    2     2       0.9882939502E-01       3    2    2         0.2671354941E+01      0.9592332581E+01
          0                 2           2             3    2     2      -0.5071810203E-02       3    2    2        -0.1425941646E+00      0.5981237340E+00
          0                 3           1             6   10     2       0.2467738413E-03       6   10    2         0.7332159803E-02      0.2289036442E-01

    ------------------------------------------------
       NWT REQUIRED            3 OUTER ITERATIONS 
       AND A TOTAL OF          5 INNER ITERATIONS.
    ------------------------------------------------

 NO OUTPUT CONTROL FOR STRESS PERIOD    8   TIME STEP   14
 
 SOLVING FOR HEAD 
                                                   Max.-Head-Change                         Max.-Flux-Residual
  Residual-Control   Outer-Iter.   Inner-Iter.     Column Row Layer    Maximum-Head-Change  Column Row Layer    Maximum-Flux-Residual          L2-NORM 
          0                 1           2             3    2     2       0.9493040197E-01       3    2    2         0.2562040244E+01      0.9148874196E+01
          0                 2           2             5   10     2      -0.4880916136E-02       5   10    2        -0.1387643861E+00      0.5739877923E+00
          0                 3           1             6   10     2       0.2392025642E-03       6   10    2         0.7062076288E-02      0.2174865626E-01

    ------------------------------------------------
       NWT REQUIRED            3 OUTER ITERATIONS 
       AND A TOTAL OF          5 INNER ITERATIONS.
    ------------------------------------------------

 OUTPUT CONTROL FOR STRESS PERIOD    8   TIME STEP   15
    PRINT BUDGET
    PRINT HEAD FOR ALL LAYERS
    SAVE HEAD FOR ALL LAYERS
    SAVE BUDGET

  HEAD DEP BOUNDS   PERIOD    8   STEP    15
 BOUNDARY      1   LAYER   2   ROW    13   COL     1   RATE   -0.319188    
 BOUNDARY      2   LAYER   2   ROW    14   COL     9   RATE    0.214650    



 STREAM LISTING     PERIOD      8   STEP       15

 LAYER ROW COL. STREAM  RCH.  FLOW INTO     FLOW TO   FLOW OUT OF   OVRLND.     DIRECT     STREAM       STREAM     STREAM     STREAM   STREAMBED  STREAMBED
                SEG.NO.  NO.  STRM. RCH.    AQUIFER    STRM. RCH.    RUNOFF     PRECIP       ET          HEAD       DEPTH      WIDTH   CONDCTNC.   GRADIENT

   2    1    1     1     1    2.0400E+02  1.9323E+00   2.0207E+02  0.000E+00  0.000E+00  0.000E+00  1.09539E+03  2.344E+00  2.871E+01  1.292E+00  4.985E-01
   2    2    2     1     2    2.0207E+02  6.2651E+00   1.9580E+02  0.000E+00  0.000E+00  0.000E+00  1.09038E+03  2.326E+00  2.849E+01  1.995E+00  1.047E+00
   2    3    3     1     3    1.9580E+02  8.9165E+00   1.8689E+02  0.000E+00  0.000E+00  0.000E+00  1.08471E+03  2.292E+00  2.808E+01  1.685E+00  1.764E+00
   2    3    4     1     4    1.8689E+02  8.0495E+00   1.7884E+02  0.000E+00  0.000E+00  0.000E+00  1.07966E+03  2.254E+00  2.761E+01  1.532E+00  1.751E+00
   2    4    5     2     1    1.6884E+02  0.0000E+00   1.6884E+02  0.000E+00  0.000E+00  0.000E+00  1.07570E+03  3.763E+00  1.200E+01  7.800E-01  2.254E+00
   2    5    6     2     2    1.6884E+02  4.0196E+00   1.6482E+02  0.000E+00  0.000E+00  0.000E+00  1.07021E+03  3.699E+00  1.200E+01  6.000E-01  2.233E+00
   2    6    6     2     3    1.6482E+02  3.9865E+00   1.6083E+02  0.000E+00  0.000E+00  0.000E+00  1.06544E+03  3.644E+00  1.200E+01  6.000E-01  2.215E+00
   2    7    6     2     4    1.6083E+02  3.9533E+00   1.5688E+02  0.000E+00  0.000E+00  0.000E+00  1.06066E+03  3.589E+00  1.200E+01  6.000E-01  2.196E+00
   2    8    6     2     5    1.5688E+02  3.9200E+00   1.5296E+02  0.000E+00  0.000E+00  0.000E+00  1.05589E+03  3.533E+00  1.200E+01  6.000E-01  2.178E+00
   2    3    5     3     1    1.0000E+01  2.8252E+00   7.1748E+00  0.000E+00  0.000E+00  0.000E+00  1.07555E+03  1.909E+00  9.636E+00  7.227E-01  1.955E+00
   2    3    6     3     2    7.1748E+00  2.4905E+00   4.6843E+00  0.000E+00  0.000E+00  0.000E+00  1.07264E+03  1.727E+00  8.909E+00  6.682E-01  1.864E+00
   2    3    7     3     3    4.6843E+00  1.9718E+00   2.7125E+00  0.000E+00  0.000E+00  0.000E+00  1.06987E+03  1.555E+00  8.218E+00  5.547E-01  1.777E+00
   2    4    8     3     4    2.7125E+00  2.2567E+00   4.5579E-01  0.000E+00  0.000E+00  0.000E+00  1.06682E+03  1.364E+00  7.455E+00  6.709E-01  1.682E+00
   2    5    8     3     5    4.5579E-01  4.5579E-01   0.0000E+00  0.000E+00  0.000E+00  0.000E+00  1.06362E+03  0.000E+00  6.655E+00  4.991E-01  1.582E+00
   2    6    8     3     6    0.0000E+00  0.0000E+00   0.0000E+00  0.000E+00  0.000E+00  0.000E+00  1.06055E+03  0.000E+00  6.145E+00  1.844E-01  1.000E+00
   2    5   10     4     1    1.0000E+01  9.0525E-01   9.0947E+00  0.000E+00  0.000E+00  0.000E+00  1.07835E+03  6.210E-01  1.000E+01  2.500E-01  1.207E+00
   2    5    9     4     2    9.0947E+00  1.7835E+00   7.3113E+00  0.000E+00  0.000E+00  0.000E+00  1.07148E+03  5.670E-01  1.000E+01  5.000E-01  1.189E+00
   2    6    8     4     3    7.3113E+00  1.2257E+00   6.0855E+00  0.000E+00  0.000E+00  0.000E+00  1.06368E+03  5.021E-01  1.000E+01  3.500E-01  1.167E+00
   2    6    8     5     1    6.0855E+00  1.4716E+00   4.6139E+00  0.000E+00  0.000E+00  0.000E+00  1.05854E+03  5.396E-01  1.039E+01  4.158E-01  1.180E+00
   2    7    7     5     2    4.6139E+00  1.4897E+00   3.1242E+00  0.000E+00  0.000E+00  0.000E+00  1.05398E+03  4.817E-01  8.557E+00  4.279E-01  1.161E+00
   2    8    7     5     3    3.1242E+00  8.2855E-01   2.2957E+00  0.000E+00  0.000E+00  0.000E+00  1.04968E+03  4.253E-01  6.911E+00  2.419E-01  1.142E+00
   2    8    6     5     4    2.2957E+00  4.9455E-01   1.8011E+00  0.000E+00  0.000E+00  0.000E+00  1.04664E+03  3.856E-01  5.843E+00  1.461E-01  1.129E+00
   2    9    6     6     1    1.5476E+02  3.9254E+00   1.5083E+02  0.000E+00  0.000E+00  0.000E+00  1.04627E+03  3.542E+00  1.200E+01  6.000E-01  2.181E+00
   2   10    7     6     2    1.5083E+02  3.8914E+00   1.4694E+02  0.000E+00  0.000E+00  0.000E+00  1.04167E+03  3.486E+00  1.200E+01  6.000E-01  2.162E+00
   2   11    7     6     3    1.4694E+02  2.9246E+00   1.4402E+02  0.000E+00  0.000E+00  0.000E+00  1.03707E+03  3.436E+00  1.200E+01  6.000E-01  1.625E+00
   2   12    7     6     4    1.4402E+02  1.5996E+00   1.4242E+02  0.000E+00  0.000E+00  0.000E+00  1.03249E+03  3.402E+00  1.200E+01  6.000E-01  8.887E-01
   2   13    7     6     5    1.4242E+02 -6.3111E-02   1.4248E+02  0.000E+00  0.000E+00  0.000E+00  1.02930E+03  3.391E+00  1.200E+01  2.400E-01 -8.765E-02
   2   14    9     7     1    1.5000E+02  2.8682E+00   1.4713E+02  0.000E+00  0.000E+00  0.000E+00  1.03986E+03  2.284E+00  5.528E+01  5.591E+00  1.710E-01
   2   13    8     7     2    1.4713E+02  3.5428E+00   1.4359E+02  0.000E+00  0.000E+00  0.000E+00  1.03477E+03  2.267E+00  5.520E+01  6.141E+00  1.923E-01
   2   13    7     7     3    1.4359E+02  6.2230E-01   1.4297E+02  0.000E+00  0.000E+00  0.000E+00  1.02967E+03  2.255E+00  5.515E+01  5.577E+00  3.719E-02
   2   13    6     8     1    2.8545E+02  4.4333E-01   2.8554E+02  5.404E-01  0.000E+00  0.000E+00  1.02544E+03  3.561E+00  5.163E+01  5.261E+00  2.809E-02
   2   13    5     8     2    2.8554E+02 -2.4934E+00   2.8858E+02  5.404E-01  0.000E+00  0.000E+00  1.01919E+03  3.568E+00  5.174E+01  5.272E+00 -1.576E-01
   2   13    4     8     3    2.8858E+02 -4.6505E+00   2.9377E+02  5.404E-01  0.000E+00  0.000E+00  1.01296E+03  3.588E+00  5.202E+01  5.301E+00 -2.924E-01
   2   13    3     8     4    2.9377E+02 -5.4627E+00   2.9977E+02  5.404E-01  0.000E+00  0.000E+00  1.00674E+03  3.614E+00  5.240E+01  5.340E+00 -3.410E-01
   2   13    2     8     5    2.9977E+02 -4.1479E+00   3.0446E+02  5.404E-01  0.000E+00  0.000E+00  1.00051E+03  3.639E+00  5.276E+01  5.376E+00 -2.572E-01
   2   13    1     8     6    3.0446E+02 -2.8146E+00   3.0760E+02  3.243E-01  0.000E+00  0.000E+00  9.95531E+02  3.656E+00  5.302E+01  3.242E+00 -2.894E-01
   2    4    5     9     1    0.0000E+00  0.0000E+00   0.0000E+00  0.000E+00  0.000E+00  0.000E+00  1.06000E+03  1.900E-04  2.000E+01  2.000E-03 -2.931E-01
   2    4    5    10     1    0.0000E+00  0.0000E+00   0.0000E+00  0.000E+00  0.000E+00  0.000E+00  1.08000E+03  0.000E+00  2.000E+01  2.000E-03  1.000E+00





     0  LAKE CELLS ARE DRY.

 PERIOD     8     TIME STEP    15     TIME STEP LENGTH  1.7520E+05
 PERIOD TIME  2.6280E+06     TOTAL SIMULATION TIME  2.1024E+07


                 HYDROLOGIC BUDGET SUMMARIES FOR SIMULATED LAKES
     (ALL FLUID FLUXES ARE VOLUMES ADDED TO THE LAKE DURING PRESENT TIME STEP)
     ----------------------------------------------------------------------------------------
 LAKE    STAGE         VOLUME     VOL. CHANGE      PRECIP     EVAPORATION    SPECIFIED RUNOFF     COMPUTED RUNOFF    TOTAL RUNOFF
   1  1.074507E+03  1.250995E+03 -1.527930E+01  0.000000E+00  1.381211E+02   0.000000E+00          0.000000E+00      0.000000E+00

            GROUND WATER            SURFACE WATER        WATER          UZF INFIL.
 LAKE    INFLOW     OUTFLOW      INFLOW     OUTFLOW       USE        FROM LAKE
   1  0.0000E+00  0.0000E+00  0.0000E+00  0.0000E+00  0.0000E+00       1.8537E+02

      CONNECTED LAKE   TIME-STEP         STAGE-CHANGE          PERCENT
 LAKE    INFLUX      SURFACE AREA   TIME STEP  CUMULATIVE    DISCREPANCY
   1   0.0000E+00     1.9709E+04  -9.3903E-05  7.4745E-03     -95.277
 --------------------------------------------------------------------------------



            CUMULATIVE HYDROLOGIC BUDGET SUMMARIES FOR SIMULATED LAKES
     (ALL FLUID FLUXES ARE SUMS OF VOLUMES ADDED TO THE LAKE SINCE INITIAL TIME)
     ---------------------------------------------------------------------------
 LAKE       PRECIP       EVAP     SPECIFIED RUNOFF   COMPUTED RUNOFF   TOTAL RUNOFF
   1     0.0000E+00  1.6081E+06       0.0000E+00       0.0000E+00       0.0000E+00

            GROUND WATER            SURFACE WATER       UZF INFIL.
 LAKE    INFLOW     OUTFLOW      INFLOW     OUTFLOW     FROM LAKE
   1  0.0000E+00  0.0000E+00  1.9325E+08  4.8782E+07    1.4291E+08

         WATER    CONNECTED LAKE   CHANGE       PERCENT
 LAKE     USE         INFLUX       IN VOL.    DISCREPANCY
   1   0.0000E+00   0.0000E+00   1.2510E+03     -0.026
 --------------------------------------------------------------------------------

 UBDSV3 SAVING "           GW ET" ON UNIT  61 AT TIME STEP    15, STRESS PERIOD   8
 UBDSV3 SAVING "    UZF RECHARGE" ON UNIT  61 AT TIME STEP    15, STRESS PERIOD   8
 UBDSV3 SAVING " SURFACE LEAKAGE" ON UNIT  61 AT TIME STEP    15, STRESS PERIOD   8
 UBDSV3 SAVING "       HORT+DUNN" ON UNIT  61 AT TIME STEP    15, STRESS PERIOD   8
 UBDSV3 SAVING "  STORAGE CHANGE" ON UNIT  61 AT TIME STEP    15, STRESS PERIOD   8


UNSATURATED ZONE PACKAGE VOLUMETRIC BUDGET FOR  TIME STEP    15 STRESS PERIOD    8
  ------------------------------------------------------------------------------



     CUMULATIVE VOLUMES      L**3       RATES FOR THIS TIME STEP      L**3/T
     ------------------                 ------------------------

           IN:                                      IN:
           ---                                      ---
        INFILTRATION =  1497002231.9125          INFILTRATION =          42.0591

          OUT:                                     OUT:
          ----                                     ----
              UZF ET =  1343638119.2538                UZF ET =          32.8777
        UZF RECHARGE =   677993040.1284          UZF RECHARGE =           9.9854

            IN - OUT =  -524628927.4698              IN - OUT =          -0.8040

          STORAGE:                                 STORAGE:
          --------                                 --------
      STORAGE CHANGE =  -524659442.9042        STORAGE CHANGE =          -0.7985

 PERCENT DISCREPANCY IS DIFFERENCE BETWEEN IN-OUT MINUS CHANGE IN STORAGE
 DIVIDED BY THE AVERAGE OF IN AND OUT TIMES 100

 PERCENT DISCREPANCY =           0.00     PERCENT DISCREPANCY =          -0.01






1
              HEAD IN LAYER   1 AT END OF TIME STEP    15 IN STRESS PERIOD    8
  -----------------------------------------------------------------------------

           1       2       3       4       5       6       7       8       9      10
 ...................................................................................
   1  6999.00 6999.00 6999.00 6999.00 6999.00 6999.00 6999.00 6999.00 6999.00 6999.00
   2  6999.00 6999.00 6999.00 6999.00 6999.00 6999.00 6999.00 6999.00 6999.00 6999.00
   3  6999.00 6999.00 6999.00 6999.00 6999.00 6999.00 6999.00 6999.00 6999.00 6999.00
   4  6999.00 6999.00 6999.00 6999.00 1074.51 6999.00 6999.00 6999.00 6999.00 6999.00
   5  6999.00 6999.00 6999.00 6999.00 6999.00 6999.00 6999.00 6999.00 6999.00 6999.00
   6  6999.00 6999.00 6999.00 6999.00 6999.00 6999.00 6999.00 6999.00 6999.00 6999.00
   7  6999.00 6999.00 6999.00 6999.00 6999.00 6999.00 6999.00 6999.00 6999.00 6999.00
   8  6999.00 6999.00 6999.00 6999.00 6999.00 6999.00 6999.00 6999.00 6999.00 6999.00
   9  6999.00 6999.00 6999.00 6999.00 6999.00 6999.00 6999.00 6999.00 6999.00 6999.00
  10  6999.00 6999.00 6999.00 6999.00 6999.00 6999.00 6999.00 6999.00 6999.00 6999.00
  11  6999.00 6999.00 6999.00 6999.00 6999.00 6999.00 6999.00 6999.00 6999.00 6999.00
  12  6999.00 6999.00 6999.00 6999.00 6999.00 6999.00 6999.00 6999.00 6999.00 6999.00
  13  6999.00 6999.00 6999.00 6999.00 6999.00 6999.00 6999.00 6999.00 6999.00 6999.00
  14  6999.00 6999.00 6999.00 6999.00 6999.00 6999.00 6999.00 6999.00 6999.00 6999.00
  15  6999.00 6999.00 6999.00 6999.00 6999.00 6999.00 6999.00 6999.00 6999.00 6999.00
1
              HEAD IN LAYER   2 AT END OF TIME STEP    15 IN STRESS PERIOD    8
  -----------------------------------------------------------------------------

           1       2       3       4       5       6       7       8       9      10
 ...................................................................................
   1  1093.90 1088.41 6999.00 6999.00 6999.00 6999.00 6999.00 6999.00 6999.00 6999.00
   2  1087.83 1087.24 1079.38 6999.00 6999.00 1067.73 1067.07 1065.19 6999.00 6999.00
   3  6999.00 1074.98 1075.68 1071.67 1068.94 1067.04 1065.67 1063.66 6999.00 6999.00
   4  1061.61 1063.33 1064.44 1062.17 1060.88 1058.71 1057.84 1059.94 1058.00 6999.00
   5  1057.69 1055.36 1054.71 1054.37 1054.31 1054.51 1052.66 1052.94 1055.62 1057.70
   6  1053.57 1049.87 1048.14 1048.23 1048.74 1050.37 1049.77 1050.70 1052.45 1057.13
   7  1050.65 1044.92 1042.78 1042.92 1043.88 1046.14 1046.40 1047.53 1049.09 6999.00
   8  6999.00 1039.34 1037.91 1038.18 1039.27 1041.78 1042.14 1043.71 1045.34 6999.00
   9  6999.00 1033.51 1032.81 1033.38 1034.59 1037.09 1037.69 1038.04 1040.82 6999.00
  10  6999.00 1027.50 1027.59 1028.79 1030.26 1032.52 1034.84 1034.58 1037.25 1040.43
  11  6999.00 1019.82 1020.99 1024.16 1026.43 1029.16 1032.20 1032.42 1035.13 6999.00
  12  1003.24 1009.92 1014.19 1018.81 1022.64 1026.49 1029.83 1031.46 1034.75 6999.00
  13   996.40 1001.29 1007.76 1013.84 1019.67 1025.35 1029.56 1034.19 1036.74 6999.00
  14  6999.00 1007.06 1010.96 1015.91 1021.05 1025.98 1030.35 1035.24 1039.35 6999.00
  15  6999.00 6999.00 1018.62 1021.40 1025.00 1028.00 6999.00 6999.00 6999.00 6999.00

 HEAD WILL BE SAVED ON UNIT   58 AT END OF TIME STEP   15, STRESS PERIOD    8
1
  VOLUMETRIC BUDGET FOR ENTIRE MODEL AT END OF TIME STEP   15, STRESS PERIOD   8
  ------------------------------------------------------------------------------

     CUMULATIVE VOLUMES      L**3       RATES FOR THIS TIME STEP      L**3/T
     ------------------                 ------------------------

           IN:                                      IN:
           ---                                      ---
             STORAGE =   159546512.0000               STORAGE =           7.1352
       CONSTANT HEAD =           0.0000         CONSTANT HEAD =           0.0000
               WELLS =           0.0000                 WELLS =           0.0000
     HEAD DEP BOUNDS =     4509031.5000       HEAD DEP BOUNDS =           0.2146
      STREAM LEAKAGE =  1614342528.0000        STREAM LEAKAGE =          79.0593
       LAKE  SEEPAGE =           0.0000         LAKE  SEEPAGE =           0.0000
        UZF RECHARGE =   677992960.0000          UZF RECHARGE =           9.9854
               GW ET =           0.0000                 GW ET =           0.0000
     SURFACE LEAKAGE =           0.0000       SURFACE LEAKAGE =           0.0000

            TOTAL IN =  2456391168.0000              TOTAL IN =          96.3946

          OUT:                                     OUT:
          ----                                     ----
             STORAGE =  1473094144.0000               STORAGE =          60.6738
       CONSTANT HEAD =           0.0000         CONSTANT HEAD =           0.0000
               WELLS =   289080000.0000                 WELLS =           0.0000
     HEAD DEP BOUNDS =     6384496.5000       HEAD DEP BOUNDS =           0.3192
      STREAM LEAKAGE =   370509184.0000        STREAM LEAKAGE =          19.6322
       LAKE  SEEPAGE =           0.0000         LAKE  SEEPAGE =           0.0000
        UZF RECHARGE =           0.0000          UZF RECHARGE =           0.0000
               GW ET =   294416992.0000                 GW ET =          18.2097
     SURFACE LEAKAGE =    80974112.0000       SURFACE LEAKAGE =           2.8330

           TOTAL OUT =  2514458880.0000             TOTAL OUT =         101.6679

            IN - OUT =   -58067712.0000              IN - OUT =          -5.2733

 PERCENT DISCREPANCY =          -2.34     PERCENT DISCREPANCY =          -5.32






         TIME SUMMARY AT END OF TIME STEP   15 IN STRESS PERIOD    8
                    SECONDS     MINUTES      HOURS       DAYS        YEARS
                    -----------------------------------------------------------
   TIME STEP LENGTH 1.75200E+05  2920.0      48.667      2.0278     5.55175E-03
 STRESS PERIOD TIME 2.62800E+06  43800.      730.00      30.417     8.32763E-02
         TOTAL TIME 2.10240E+07 3.50400E+05  5840.0      243.33     0.66621    
1
1
                            STRESS PERIOD NO.    9, LENGTH =   2628000.    
                            -----------------------------------------------

                              NUMBER OF TIME STEPS =    15

                               MULTIPLIER FOR DELT =     1.000

                            INITIAL TIME STEP SIZE =   175200.0    

 WELL NO.  LAYER   ROW   COL   STRESS RATE         
 --------------------------------------------------
      1      2      6      4      -1.000    
      2      2      6      5      -1.000    
      3      2      7      4      -1.000    
      4      2      7      5      -1.000    
      5      2      8      4      -1.000    
      6      2      8      5      -1.000    
      7      2      9      4      -1.000    
      8      2      9      5      -1.000    
      9      2     10      4      -1.000    
     10      2     10      5      -1.000    

     10 WELLS

 REUSING NON-PARAMETER GHB CELLS FROM LAST STRESS PERIOD

      2 GHB CELLS

 REUSING STREAM SEGMENT DATA FROM LAST STRESS PERIOD



            AREAL INFILTRATION RATE
 READING ON UNIT   19 WITH FORMAT: (10F4.0)            

            1           2           3           4           5           6           7           8           9          10
 ........................................................................................................................
   1   3.0000E-09  6.0000E-09   0.000       0.000       0.000       0.000       0.000       0.000       0.000       0.000    
   2   6.0000E-09  3.0000E-09  6.0000E-09   0.000       0.000      2.4000E-08  2.4000E-08  1.5000E-08   0.000       0.000    
   3    0.000      1.5000E-08  3.0000E-09  3.0000E-09  2.4000E-08  2.4000E-08  1.5000E-08  1.5000E-08   0.000       0.000    
   4   2.4000E-08  1.5000E-08  3.0000E-09  3.0000E-09  3.0000E-09  3.0000E-09  3.0000E-09  3.0000E-09  6.0000E-09   0.000    
   5   2.4000E-08  1.5000E-08  3.0000E-09  3.0000E-09  3.0000E-09  3.0000E-09  3.0000E-09  3.0000E-09  3.0000E-09  3.0000E-09
   6   2.4000E-08  1.5000E-08  1.5000E-08  6.0000E-09  6.0000E-09  3.0000E-09  3.0000E-09  3.0000E-09  3.0000E-09  1.5000E-08
   7   2.4000E-08  1.5000E-08  1.5000E-08  6.0000E-09  6.0000E-09  3.0000E-09  3.0000E-09  6.0000E-09  6.0000E-09   0.000    
   8    0.000      1.5000E-08  1.5000E-08  6.0000E-09  6.0000E-09  3.0000E-09  3.0000E-09  6.0000E-09  1.5000E-08   0.000    
   9    0.000      1.5000E-08  1.5000E-08  6.0000E-09  6.0000E-09  3.0000E-09  3.0000E-09  6.0000E-09  1.5000E-08   0.000    
  10    0.000      1.5000E-08  1.5000E-08  6.0000E-09  6.0000E-09  3.0000E-09  3.0000E-09  6.0000E-09  1.5000E-08  2.4000E-08
  11    0.000      3.0000E-09  3.0000E-09  3.0000E-09  3.0000E-09  3.0000E-09  3.0000E-09  6.0000E-09  1.5000E-08   0.000    
  12   3.0000E-09  3.0000E-09  3.0000E-09  3.0000E-09  3.0000E-09  3.0000E-09  3.0000E-09  3.0000E-09  6.0000E-09   0.000    
  13   3.0000E-09  3.0000E-09  6.0000E-09  6.0000E-09  6.0000E-09  6.0000E-09  6.0000E-09  3.0000E-09  3.0000E-09   0.000    
  14    0.000      6.0000E-09  1.5000E-08  1.5000E-08  1.5000E-08  1.5000E-08  1.5000E-08  6.0000E-09  3.0000E-09   0.000    
  15    0.000       0.000      2.4000E-08  2.4000E-08  2.4000E-08  2.4000E-08   0.000       0.000       0.000       0.000    

USING ET RATE FROM PREVIOUS STRESS PERIOD. CURRENT PERIOD IS:       9

 USING ET EXTINCTION DEPTH FROM PREVIOUS STRESS PERIOD. CURRENT PERIOD IS:       9

 USING EXTINCTION WATER CONTENT FROM PREVIOUS STRESS PERIOD. CURRENT PERIOD IS:       9




 If any subsequent steady-state stress periods, min. and max. stages for each lake will be read in Record 9a.




 REUSING LAKE CONFIGURATION DATA FROM LAST STRESS PERIOD


 LAKE       PRECIP     EVAP     RUNOFF   WITHDRAW   BOTTOM     AREA
----------------------------------------------------------------------
   1     0.000E+00 4.000E-08 0.000E+00  0.000E+00 1.074E+03 2.500E+07




         C               INTERFACE CONDUCTANCES BETWEEN LAKE AND AQUIFER CELLS
   L     O          (IF TYPE = 6, CONDUCTANCE (L^2/T) IS BETWEEN AQUIFER CELL AND OVERLYING LAKE CELL.)
   A     L  L  T    (IF TYPE = 1 TO 4, CONDUCTANCES ARE PER UNIT SATURATED THICKNESS (L/T).)
   Y  R  U  A  Y
   E  O  M  K  P                        LAKEBED      C O N D U C T A N C E S
   R  W  N  E  E     DELTA Y   DELTA X  LEAKANCE   LAKEBED   AQUIFER  COMBINED
 _______________________________________________________________________________
   1  4  4  1  2    5.00E+03  5.00E+03  5.00E-02  2.50E+02  6.00E-03  6.00E-03
   1  3  5  1  3    5.00E+03  5.00E+03  5.00E-02  2.50E+02  1.20E-03  1.20E-03
   2  4  5  1  6    5.00E+03  5.00E+03  5.00E-02  1.25E+06  9.42E+00  9.42E+00
   1  5  5  1  4    5.00E+03  5.00E+03  5.00E-02  2.50E+02  6.00E-03  6.00E-03
   1  4  6  1  1    5.00E+03  5.00E+03  5.00E-02  2.50E+02  6.00E-03  6.00E-03
      LAKE     INFLOWING STREAM SEGMENT
         1                  9

 MAXIMUM NUMBER OF STREAMS INFLOWING TO A LAKE IS    1

      LAKE     OUTFLOWING STREAM SEGMENT
         1                 10

 MAXIMUM NUMBER OF STREAMS OUTFLOWING FROM A LAKE IS    1

 
 SOLVING FOR HEAD 
                                                   Max.-Head-Change                         Max.-Flux-Residual
  Residual-Control   Outer-Iter.   Inner-Iter.     Column Row Layer    Maximum-Head-Change  Column Row Layer    Maximum-Flux-Residual          L2-NORM 
          0                 1           2             3    2     2       0.9131880568E-01       3    2    2         0.2460964160E+01      0.7079104741E+01
          0                 2           2             3    2     2      -0.4686208216E-02       3    2    2        -0.1310212298E+00      0.4756852018E+00
          0                 3           1             6   10     2       0.2273926205E-03       6   10    2         0.6844420181E-02      0.1982940016E-01

    ------------------------------------------------
       NWT REQUIRED            3 OUTER ITERATIONS 
       AND A TOTAL OF          5 INNER ITERATIONS.
    ------------------------------------------------

 NO OUTPUT CONTROL FOR STRESS PERIOD    9   TIME STEP    1
 
 SOLVING FOR HEAD 
                                                   Max.-Head-Change                         Max.-Flux-Residual
  Residual-Control   Outer-Iter.   Inner-Iter.     Column Row Layer    Maximum-Head-Change  Column Row Layer    Maximum-Flux-Residual          L2-NORM 
          0                 1           2             3    2     2       0.8717130095E-01       3    2    2         0.2365401432E+01      0.7045099603E+01
          0                 2           2             3    2     2      -0.4601636949E-02       3    2    2        -0.1302535300E+00      0.4734970045E+00
          0                 3           1             6   10     2       0.2128239838E-03       6   10    2         0.6433204948E-02      0.1981495988E-01

    ------------------------------------------------
       NWT REQUIRED            3 OUTER ITERATIONS 
       AND A TOTAL OF          5 INNER ITERATIONS.
    ------------------------------------------------

 NO OUTPUT CONTROL FOR STRESS PERIOD    9   TIME STEP    2
 
 SOLVING FOR HEAD 
                                                   Max.-Head-Change                         Max.-Flux-Residual
  Residual-Control   Outer-Iter.   Inner-Iter.     Column Row Layer    Maximum-Head-Change  Column Row Layer    Maximum-Flux-Residual          L2-NORM 
          0                 1           2             3    2     2       0.8229457703E-01       3    2    2         0.2257851808E+01      0.7326249458E+01
          0                 2           2             2    2     2       0.5056888469E-02       2    2    2         0.1545356937E+00      0.5052590525E+00
          0                 3           1             2    2     2      -0.2911430818E-03       2    2    2        -0.9084519962E-02      0.2237651886E-01

    ------------------------------------------------
       NWT REQUIRED            3 OUTER ITERATIONS 
       AND A TOTAL OF          5 INNER ITERATIONS.
    ------------------------------------------------

 NO OUTPUT CONTROL FOR STRESS PERIOD    9   TIME STEP    3
 
 SOLVING FOR HEAD 
                                                   Max.-Head-Change                         Max.-Flux-Residual
  Residual-Control   Outer-Iter.   Inner-Iter.     Column Row Layer    Maximum-Head-Change  Column Row Layer    Maximum-Flux-Residual          L2-NORM 
          0                 1           2             3    2     2       0.7788982689E-01       3    2    2         0.2133468813E+01      0.6834674290E+01
          0                 2           2             2    2     2       0.4363022150E-02       2    2    2         0.1336851660E+00      0.4700794986E+00
          0                 3           1             2    2     2      -0.2513601232E-03       2    2    2        -0.7851698126E-02      0.2051074430E-01

    ------------------------------------------------
       NWT REQUIRED            3 OUTER ITERATIONS 
       AND A TOTAL OF          5 INNER ITERATIONS.
    ------------------------------------------------

 NO OUTPUT CONTROL FOR STRESS PERIOD    9   TIME STEP    4
 
 SOLVING FOR HEAD 
                                                   Max.-Head-Change                         Max.-Flux-Residual
  Residual-Control   Outer-Iter.   Inner-Iter.     Column Row Layer    Maximum-Head-Change  Column Row Layer    Maximum-Flux-Residual          L2-NORM 
          0                 1           2             3    2     2       0.7384143036E-01       3    2    2         0.2019281291E+01      0.6462878166E+01
          0                 2           2             3    2     2      -0.3900973245E-02       2    2    2         0.1151203044E+00      0.4440244059E+00
          0                 3           1             2    2     2      -0.2159105256E-03       2    2    2        -0.6754958385E-02      0.1911831959E-01

    ------------------------------------------------
       NWT REQUIRED            3 OUTER ITERATIONS 
       AND A TOTAL OF          5 INNER ITERATIONS.
    ------------------------------------------------

 OUTPUT CONTROL FOR STRESS PERIOD    9   TIME STEP    5
    PRINT BUDGET
    SAVE BUDGET

            WELLS   PERIOD    9   STEP   5
 WELL      1   LAYER   2   ROW     6   COL     4   RATE    -1.00000    
 WELL      2   LAYER   2   ROW     6   COL     5   RATE    -1.00000    
 WELL      3   LAYER   2   ROW     7   COL     4   RATE    -1.00000    
 WELL      4   LAYER   2   ROW     7   COL     5   RATE    -1.00000    
 WELL      5   LAYER   2   ROW     8   COL     4   RATE    -1.00000    
 WELL      6   LAYER   2   ROW     8   COL     5   RATE    -1.00000    
 WELL      7   LAYER   2   ROW     9   COL     4   RATE    -1.00000    
 WELL      8   LAYER   2   ROW     9   COL     5   RATE    -1.00000    
 WELL      9   LAYER   2   ROW    10   COL     4   RATE    -1.00000    
 WELL     10   LAYER   2   ROW    10   COL     5   RATE    -1.00000    

  HEAD DEP BOUNDS   PERIOD    9   STEP     5
 BOUNDARY      1   LAYER   2   ROW    13   COL     1   RATE   -0.313239    
 BOUNDARY      2   LAYER   2   ROW    14   COL     9   RATE    0.214693    



 STREAM LISTING     PERIOD      9   STEP        5

 LAYER ROW COL. STREAM  RCH.  FLOW INTO     FLOW TO   FLOW OUT OF   OVRLND.     DIRECT     STREAM       STREAM     STREAM     STREAM   STREAMBED  STREAMBED
                SEG.NO.  NO.  STRM. RCH.    AQUIFER    STRM. RCH.    RUNOFF     PRECIP       ET          HEAD       DEPTH      WIDTH   CONDCTNC.   GRADIENT

   2    1    1     1     1    1.4800E+02  1.5533E+00   1.4645E+02  0.000E+00  0.000E+00  0.000E+00  1.09513E+03  2.079E+00  2.544E+01  1.145E+00  4.522E-01
   2    2    2     1     2    1.4645E+02  5.3815E+00   1.4107E+02  0.000E+00  0.000E+00  0.000E+00  1.09012E+03  2.061E+00  2.522E+01  1.765E+00  1.016E+00
   2    3    3     1     3    1.4107E+02  7.4746E+00   1.3359E+02  0.000E+00  0.000E+00  0.000E+00  1.08444E+03  2.026E+00  2.479E+01  1.487E+00  1.675E+00
   2    3    4     1     4    1.3359E+02  6.7238E+00   1.2687E+02  0.000E+00  0.000E+00  0.000E+00  1.07939E+03  1.986E+00  2.430E+01  1.349E+00  1.662E+00
   2    4    5     2     1    1.1687E+02  0.0000E+00   1.1687E+02  0.000E+00  0.000E+00  0.000E+00  1.07494E+03  3.009E+00  1.200E+01  7.800E-01  2.003E+00
   2    5    6     2     2    1.1687E+02  3.5663E+00   1.1330E+02  0.000E+00  0.000E+00  0.000E+00  1.06945E+03  2.944E+00  1.200E+01  6.000E-01  1.981E+00
   2    6    6     2     3    1.1330E+02  3.5320E+00   1.0977E+02  0.000E+00  0.000E+00  0.000E+00  1.06468E+03  2.887E+00  1.200E+01  6.000E-01  1.962E+00
   2    7    6     2     4    1.0977E+02  3.4976E+00   1.0627E+02  0.000E+00  0.000E+00  0.000E+00  1.05990E+03  2.829E+00  1.200E+01  6.000E-01  1.943E+00
   2    8    6     2     5    1.0627E+02  3.4631E+00   1.0281E+02  0.000E+00  0.000E+00  0.000E+00  1.05513E+03  2.772E+00  1.200E+01  6.000E-01  1.924E+00
   2    3    5     3     1    1.0000E+01  2.8252E+00   7.1748E+00  0.000E+00  0.000E+00  0.000E+00  1.07555E+03  1.909E+00  9.636E+00  7.227E-01  1.955E+00
   2    3    6     3     2    7.1748E+00  2.4905E+00   4.6843E+00  0.000E+00  0.000E+00  0.000E+00  1.07264E+03  1.727E+00  8.909E+00  6.682E-01  1.864E+00
   2    3    7     3     3    4.6843E+00  1.9718E+00   2.7125E+00  0.000E+00  0.000E+00  0.000E+00  1.06987E+03  1.555E+00  8.218E+00  5.547E-01  1.777E+00
   2    4    8     3     4    2.7125E+00  2.2567E+00   4.5579E-01  0.000E+00  0.000E+00  0.000E+00  1.06682E+03  1.364E+00  7.455E+00  6.709E-01  1.682E+00
   2    5    8     3     5    4.5579E-01  4.5579E-01   0.0000E+00  0.000E+00  0.000E+00  0.000E+00  1.06362E+03  0.000E+00  6.655E+00  4.991E-01  1.582E+00
   2    6    8     3     6    0.0000E+00  0.0000E+00   0.0000E+00  0.000E+00  0.000E+00  0.000E+00  1.06055E+03  0.000E+00  6.145E+00  1.844E-01  1.000E+00
   2    5   10     4     1    1.0000E+01  9.0525E-01   9.0947E+00  0.000E+00  0.000E+00  0.000E+00  1.07835E+03  6.210E-01  1.000E+01  2.500E-01  1.207E+00
   2    5    9     4     2    9.0947E+00  1.7835E+00   7.3113E+00  0.000E+00  0.000E+00  0.000E+00  1.07148E+03  5.670E-01  1.000E+01  5.000E-01  1.189E+00
   2    6    8     4     3    7.3113E+00  1.2257E+00   6.0855E+00  0.000E+00  0.000E+00  0.000E+00  1.06368E+03  5.021E-01  1.000E+01  3.500E-01  1.167E+00
   2    6    8     5     1    6.0855E+00  1.4716E+00   4.6139E+00  0.000E+00  0.000E+00  0.000E+00  1.05854E+03  5.396E-01  1.039E+01  4.158E-01  1.180E+00
   2    7    7     5     2    4.6139E+00  1.4897E+00   3.1242E+00  0.000E+00  0.000E+00  0.000E+00  1.05398E+03  4.817E-01  8.557E+00  4.279E-01  1.161E+00
   2    8    7     5     3    3.1242E+00  8.2855E-01   2.2957E+00  0.000E+00  0.000E+00  0.000E+00  1.04968E+03  4.253E-01  6.911E+00  2.419E-01  1.142E+00
   2    8    6     5     4    2.2957E+00  4.9455E-01   1.8011E+00  0.000E+00  0.000E+00  0.000E+00  1.04664E+03  3.856E-01  5.843E+00  1.461E-01  1.129E+00
   2    9    6     6     1    1.0461E+02  3.4648E+00   1.0114E+02  0.000E+00  0.000E+00  0.000E+00  1.04550E+03  2.775E+00  1.200E+01  6.000E-01  1.925E+00
   2   10    7     6     2    1.0114E+02  3.4295E+00   9.7715E+01  0.000E+00  0.000E+00  0.000E+00  1.04090E+03  2.716E+00  1.200E+01  6.000E-01  1.905E+00
   2   11    7     6     3    9.7715E+01  2.4764E+00   9.5238E+01  0.000E+00  0.000E+00  0.000E+00  1.03630E+03  2.665E+00  1.200E+01  6.000E-01  1.376E+00
   2   12    7     6     4    9.5238E+01  1.1816E+00   9.4057E+01  0.000E+00  0.000E+00  0.000E+00  1.03172E+03  2.633E+00  1.200E+01  6.000E-01  6.564E-01
   2   13    7     6     5    9.4057E+01 -2.3669E-01   9.4293E+01  0.000E+00  0.000E+00  0.000E+00  1.02853E+03  2.624E+00  1.200E+01  2.400E-01 -3.287E-01
   2   14    9     7     1    1.5000E+02  2.8746E+00   1.4713E+02  0.000E+00  0.000E+00  0.000E+00  1.03986E+03  2.284E+00  5.528E+01  5.591E+00  1.714E-01
   2   13    8     7     2    1.4713E+02  3.5521E+00   1.4357E+02  0.000E+00  0.000E+00  0.000E+00  1.03477E+03  2.266E+00  5.520E+01  6.141E+00  1.928E-01
   2   13    7     7     3    1.4357E+02  8.6035E-01   1.4271E+02  0.000E+00  0.000E+00  0.000E+00  1.02967E+03  2.255E+00  5.515E+01  5.577E+00  5.143E-02
   2   13    6     8     1    2.3701E+02  1.9079E-01   2.3707E+02  2.577E-01  0.000E+00  0.000E+00  1.02519E+03  3.319E+00  4.813E+01  4.904E+00  1.297E-02
   2   13    5     8     2    2.3707E+02 -2.8524E+00   2.4018E+02  2.577E-01  0.000E+00  0.000E+00  1.01895E+03  3.328E+00  4.825E+01  4.917E+00 -1.934E-01
   2   13    4     8     3    2.4018E+02 -5.1259E+00   2.4557E+02  2.577E-01  0.000E+00  0.000E+00  1.01273E+03  3.350E+00  4.858E+01  4.950E+00 -3.452E-01
   2   13    3     8     4    2.4557E+02 -5.8599E+00   2.5168E+02  2.577E-01  0.000E+00  0.000E+00  1.00651E+03  3.380E+00  4.901E+01  4.995E+00 -3.911E-01
   2   13    2     8     5    2.5168E+02 -4.1470E+00   2.5609E+02  2.577E-01  0.000E+00  0.000E+00  1.00028E+03  3.407E+00  4.941E+01  5.035E+00 -2.745E-01
   2   13    1     8     6    2.5609E+02 -2.8607E+00   2.5910E+02  1.546E-01  0.000E+00  0.000E+00  9.95301E+02  3.426E+00  4.968E+01  3.038E+00 -3.139E-01
   2    4    5     9     1    0.0000E+00  0.0000E+00   0.0000E+00  0.000E+00  0.000E+00  0.000E+00  1.06000E+03  1.781E-04  2.000E+01  2.000E-03 -2.633E-01
   2    4    5    10     1    0.0000E+00  0.0000E+00   0.0000E+00  0.000E+00  0.000E+00  0.000E+00  1.08000E+03  0.000E+00  2.000E+01  2.000E-03  1.000E+00





     0  LAKE CELLS ARE DRY.

 PERIOD     9     TIME STEP     5     TIME STEP LENGTH  1.7520E+05
 PERIOD TIME  8.7600E+05     TOTAL SIMULATION TIME  2.1900E+07


                 HYDROLOGIC BUDGET SUMMARIES FOR SIMULATED LAKES
     (ALL FLUID FLUXES ARE VOLUMES ADDED TO THE LAKE DURING PRESENT TIME STEP)
     ----------------------------------------------------------------------------------------
 LAKE    STAGE         VOLUME     VOL. CHANGE      PRECIP     EVAPORATION    SPECIFIED RUNOFF     COMPUTED RUNOFF    TOTAL RUNOFF
   1  1.074507E+03  1.173385E+03 -1.584326E+01  0.000000E+00  1.295523E+02   0.000000E+00          0.000000E+00      0.000000E+00

            GROUND WATER            SURFACE WATER        WATER          UZF INFIL.
 LAKE    INFLOW     OUTFLOW      INFLOW     OUTFLOW       USE        FROM LAKE
   1  0.0000E+00  0.0000E+00  0.0000E+00  0.0000E+00  0.0000E+00       1.6317E+02

      CONNECTED LAKE   TIME-STEP         STAGE-CHANGE          PERCENT
 LAKE    INFLUX      SURFACE AREA   TIME STEP  CUMULATIVE    DISCREPANCY
   1   0.0000E+00     1.8486E+04  -6.9326E-05  7.0108E-03     -94.588
 --------------------------------------------------------------------------------



            CUMULATIVE HYDROLOGIC BUDGET SUMMARIES FOR SIMULATED LAKES
     (ALL FLUID FLUXES ARE SUMS OF VOLUMES ADDED TO THE LAKE SINCE INITIAL TIME)
     ---------------------------------------------------------------------------
 LAKE       PRECIP       EVAP     SPECIFIED RUNOFF   COMPUTED RUNOFF   TOTAL RUNOFF
   1     0.0000E+00  1.6087E+06       0.0000E+00       0.0000E+00       0.0000E+00

            GROUND WATER            SURFACE WATER       UZF INFIL.
 LAKE    INFLOW     OUTFLOW      INFLOW     OUTFLOW     FROM LAKE
   1  0.0000E+00  0.0000E+00  1.9325E+08  4.8782E+07    1.4291E+08

         WATER    CONNECTED LAKE   CHANGE       PERCENT
 LAKE     USE         INFLUX       IN VOL.    DISCREPANCY
   1   0.0000E+00   0.0000E+00   1.1734E+03     -0.027
 --------------------------------------------------------------------------------

 UBDSV3 SAVING "           GW ET" ON UNIT  61 AT TIME STEP     5, STRESS PERIOD   9
 UBDSV3 SAVING "    UZF RECHARGE" ON UNIT  61 AT TIME STEP     5, STRESS PERIOD   9
 UBDSV3 SAVING " SURFACE LEAKAGE" ON UNIT  61 AT TIME STEP     5, STRESS PERIOD   9
 UBDSV3 SAVING "       HORT+DUNN" ON UNIT  61 AT TIME STEP     5, STRESS PERIOD   9
 UBDSV3 SAVING "  STORAGE CHANGE" ON UNIT  61 AT TIME STEP     5, STRESS PERIOD   9


UNSATURATED ZONE PACKAGE VOLUMETRIC BUDGET FOR  TIME STEP     5 STRESS PERIOD    9
  ------------------------------------------------------------------------------



     CUMULATIVE VOLUMES      L**3       RATES FOR THIS TIME STEP      L**3/T
     ------------------                 ------------------------

           IN:                                      IN:
           ---                                      ---
        INFILTRATION =  1519132251.2708          INFILTRATION =          25.2801

          OUT:                                     OUT:
          ----                                     ----
              UZF ET =  1373773804.8502                UZF ET =          35.4702
        UZF RECHARGE =   685720424.3423          UZF RECHARGE =           8.6421

            IN - OUT =  -540361977.9217              IN - OUT =         -18.8321

          STORAGE:                                 STORAGE:
          --------                                 --------
      STORAGE CHANGE =  -540389554.2597        STORAGE CHANGE =         -18.8249

 PERCENT DISCREPANCY IS DIFFERENCE BETWEEN IN-OUT MINUS CHANGE IN STORAGE
 DIVIDED BY THE AVERAGE OF IN AND OUT TIMES 100

 PERCENT DISCREPANCY =           0.00     PERCENT DISCREPANCY =          -0.02






1
  VOLUMETRIC BUDGET FOR ENTIRE MODEL AT END OF TIME STEP    5, STRESS PERIOD   9
  ------------------------------------------------------------------------------

     CUMULATIVE VOLUMES      L**3       RATES FOR THIS TIME STEP      L**3/T
     ------------------                 ------------------------

           IN:                                      IN:
           ---                                      ---
             STORAGE =   167360032.0000               STORAGE =           8.5490
       CONSTANT HEAD =           0.0000         CONSTANT HEAD =           0.0000
               WELLS =           0.0000                 WELLS =           0.0000
     HEAD DEP BOUNDS =     4697093.5000       HEAD DEP BOUNDS =           0.2147
      STREAM LEAKAGE =  1678919936.0000        STREAM LEAKAGE =          71.4212
       LAKE  SEEPAGE =           0.0000         LAKE  SEEPAGE =           0.0000
        UZF RECHARGE =   685720320.0000          UZF RECHARGE =           8.6421
               GW ET =           0.0000                 GW ET =           0.0000
     SURFACE LEAKAGE =           0.0000       SURFACE LEAKAGE =           0.0000

            TOTAL IN =  2536697344.0000              TOTAL IN =          88.8269

          OUT:                                     OUT:
          ----                                     ----
             STORAGE =  1512793984.0000               STORAGE =          42.6479
       CONSTANT HEAD =           0.0000         CONSTANT HEAD =           0.0000
               WELLS =   297840000.0000                 WELLS =          10.0000
     HEAD DEP BOUNDS =     6661056.5000       HEAD DEP BOUNDS =           0.3132
      STREAM LEAKAGE =   388794432.0000        STREAM LEAKAGE =          21.0825
       LAKE  SEEPAGE =           0.0000         LAKE  SEEPAGE =           0.0000
        UZF RECHARGE =           0.0000          UZF RECHARGE =           0.0000
               GW ET =   310314400.0000                 GW ET =          18.0972
     SURFACE LEAKAGE =    82630256.0000       SURFACE LEAKAGE =           1.3715

           TOTAL OUT =  2599034112.0000             TOTAL OUT =          93.5124

            IN - OUT =   -62336768.0000              IN - OUT =          -4.6854

 PERCENT DISCREPANCY =          -2.43     PERCENT DISCREPANCY =          -5.14






         TIME SUMMARY AT END OF TIME STEP    5 IN STRESS PERIOD    9
                    SECONDS     MINUTES      HOURS       DAYS        YEARS
                    -----------------------------------------------------------
   TIME STEP LENGTH 1.75200E+05  2920.0      48.667      2.0278     5.55175E-03
 STRESS PERIOD TIME 8.76000E+05  14600.      243.33      10.139     2.77588E-02
         TOTAL TIME 2.19000E+07 3.65000E+05  6083.3      253.47     0.69397    
1
 
 SOLVING FOR HEAD 
                                                   Max.-Head-Change                         Max.-Flux-Residual
  Residual-Control   Outer-Iter.   Inner-Iter.     Column Row Layer    Maximum-Head-Change  Column Row Layer    Maximum-Flux-Residual          L2-NORM 
          0                 1           2             3    3     2       0.1638917007E+00       3    3    2         0.4424976267E+01      0.1248300273E+02
          0                 2           2             3    3     2      -0.1543245406E-01       3    3    2        -0.4357141180E+00      0.1093198820E+01
          0                 3           1             3    3     2       0.8637345788E-03       3    3    2         0.2548660608E-01      0.5432073358E-01

    ------------------------------------------------
       NWT REQUIRED            3 OUTER ITERATIONS 
       AND A TOTAL OF          5 INNER ITERATIONS.
    ------------------------------------------------

 NO OUTPUT CONTROL FOR STRESS PERIOD    9   TIME STEP    6
 
 SOLVING FOR HEAD 
                                                   Max.-Head-Change                         Max.-Flux-Residual
  Residual-Control   Outer-Iter.   Inner-Iter.     Column Row Layer    Maximum-Head-Change  Column Row Layer    Maximum-Flux-Residual          L2-NORM 
          0                 1           2             3    3     2       0.1583577678E+00       3    3    2         0.4270164129E+01      0.1131006680E+02
          0                 2           2             3    3     2      -0.1491407013E-01       3    3    2        -0.4207409661E+00      0.9489978708E+00
          0                 3           1             3    3     2       0.8354866886E-03       3    3    2         0.2464348408E-01      0.4796569809E-01

    ------------------------------------------------
       NWT REQUIRED            3 OUTER ITERATIONS 
       AND A TOTAL OF          5 INNER ITERATIONS.
    ------------------------------------------------

 NO OUTPUT CONTROL FOR STRESS PERIOD    9   TIME STEP    7
 
 SOLVING FOR HEAD 
                                                   Max.-Head-Change                         Max.-Flux-Residual
  Residual-Control   Outer-Iter.   Inner-Iter.     Column Row Layer    Maximum-Head-Change  Column Row Layer    Maximum-Flux-Residual          L2-NORM 
          0                 1           2             3    3     2       0.1531943571E+00       3    3    2         0.4125868591E+01      0.1052819893E+02
          0                 2           2             3    3     2      -0.1443264678E-01       3    3    2        -0.4068204457E+00      0.8653960011E+00
          0                 3           1             3    3     2       0.8090741272E-03       3    3    2         0.2385738606E-01      0.4424448925E-01

    ------------------------------------------------
       NWT REQUIRED            3 OUTER ITERATIONS 
       AND A TOTAL OF          5 INNER ITERATIONS.
    ------------------------------------------------

 NO OUTPUT CONTROL FOR STRESS PERIOD    9   TIME STEP    8
 
 SOLVING FOR HEAD 
                                                   Max.-Head-Change                         Max.-Flux-Residual
  Residual-Control   Outer-Iter.   Inner-Iter.     Column Row Layer    Maximum-Head-Change  Column Row Layer    Maximum-Flux-Residual          L2-NORM 
          0                 1           2             3    2     2       0.7778000756E-01       3    2    2         0.2058991232E+01      0.6986782693E+01
          0                 2           2             3    3     2      -0.5955970143E-02       3    3    2        -0.1657475813E+00      0.5053165417E+00
          0                 3           1             3    3     2       0.3349490746E-03       3    3    2         0.9863016308E-02      0.2278842701E-01

    ------------------------------------------------
       NWT REQUIRED            3 OUTER ITERATIONS 
       AND A TOTAL OF          5 INNER ITERATIONS.
    ------------------------------------------------

 NO OUTPUT CONTROL FOR STRESS PERIOD    9   TIME STEP    9
 
 SOLVING FOR HEAD 
                                                   Max.-Head-Change                         Max.-Flux-Residual
  Residual-Control   Outer-Iter.   Inner-Iter.     Column Row Layer    Maximum-Head-Change  Column Row Layer    Maximum-Flux-Residual          L2-NORM 
          0                 1           2             3    2     2       0.7376560150E-01       6   13    2        -0.2226401275E+01      0.7538644214E+01
          0                 2           2             6   13     2       0.4590809031E-02       6   13    2         0.1566795270E+00      0.5274885119E+00
          0                 3           1             6   13     2      -0.2431698792E-03       6   13    2        -0.8644464760E-02      0.2372216824E-01

    ------------------------------------------------
       NWT REQUIRED            3 OUTER ITERATIONS 
       AND A TOTAL OF          5 INNER ITERATIONS.
    ------------------------------------------------

 OUTPUT CONTROL FOR STRESS PERIOD    9   TIME STEP   10
    PRINT BUDGET
    SAVE BUDGET

            WELLS   PERIOD    9   STEP  10
 WELL      1   LAYER   2   ROW     6   COL     4   RATE    -1.00000    
 WELL      2   LAYER   2   ROW     6   COL     5   RATE    -1.00000    
 WELL      3   LAYER   2   ROW     7   COL     4   RATE    -1.00000    
 WELL      4   LAYER   2   ROW     7   COL     5   RATE    -1.00000    
 WELL      5   LAYER   2   ROW     8   COL     4   RATE    -1.00000    
 WELL      6   LAYER   2   ROW     8   COL     5   RATE    -1.00000    
 WELL      7   LAYER   2   ROW     9   COL     4   RATE    -1.00000    
 WELL      8   LAYER   2   ROW     9   COL     5   RATE    -1.00000    
 WELL      9   LAYER   2   ROW    10   COL     4   RATE    -1.00000    
 WELL     10   LAYER   2   ROW    10   COL     5   RATE    -1.00000    

  HEAD DEP BOUNDS   PERIOD    9   STEP    10
 BOUNDARY      1   LAYER   2   ROW    13   COL     1   RATE   -0.315942    
 BOUNDARY      2   LAYER   2   ROW    14   COL     9   RATE    0.214691    



 STREAM LISTING     PERIOD      9   STEP       10

 LAYER ROW COL. STREAM  RCH.  FLOW INTO     FLOW TO   FLOW OUT OF   OVRLND.     DIRECT     STREAM       STREAM     STREAM     STREAM   STREAMBED  STREAMBED
                SEG.NO.  NO.  STRM. RCH.    AQUIFER    STRM. RCH.    RUNOFF     PRECIP       ET          HEAD       DEPTH      WIDTH   CONDCTNC.   GRADIENT

   2    1    1     1     1    1.6500E+02  1.6173E+00   1.6338E+02  0.000E+00  0.000E+00  0.000E+00  1.09521E+03  2.165E+00  2.651E+01  1.193E+00  4.519E-01
   2    2    2     1     2    1.6338E+02  5.3067E+00   1.5808E+02  0.000E+00  0.000E+00  0.000E+00  1.09021E+03  2.148E+00  2.630E+01  1.841E+00  9.609E-01
   2    3    3     1     3    1.5808E+02  7.9437E+00   1.5013E+02  0.000E+00  0.000E+00  0.000E+00  1.08453E+03  2.115E+00  2.589E+01  1.553E+00  1.705E+00
   2    3    4     1     4    1.5013E+02  7.1552E+00   1.4298E+02  0.000E+00  0.000E+00  0.000E+00  1.07948E+03  2.075E+00  2.540E+01  1.410E+00  1.692E+00
   2    4    5     2     1    1.3298E+02  0.0000E+00   1.3298E+02  0.000E+00  0.000E+00  0.000E+00  1.07519E+03  3.255E+00  1.200E+01  7.800E-01  2.085E+00
   2    5    6     2     2    1.3298E+02  3.7143E+00   1.2926E+02  0.000E+00  0.000E+00  0.000E+00  1.06970E+03  3.191E+00  1.200E+01  6.000E-01  2.064E+00
   2    6    6     2     3    1.2926E+02  3.6805E+00   1.2558E+02  0.000E+00  0.000E+00  0.000E+00  1.06493E+03  3.134E+00  1.200E+01  6.000E-01  2.045E+00
   2    7    6     2     4    1.2558E+02  3.6466E+00   1.2194E+02  0.000E+00  0.000E+00  0.000E+00  1.06015E+03  3.078E+00  1.200E+01  6.000E-01  2.026E+00
   2    8    6     2     5    1.2194E+02  3.6125E+00   1.1832E+02  0.000E+00  0.000E+00  0.000E+00  1.05538E+03  3.021E+00  1.200E+01  6.000E-01  2.007E+00
   2    3    5     3     1    1.0000E+01  2.8252E+00   7.1748E+00  0.000E+00  0.000E+00  0.000E+00  1.07555E+03  1.909E+00  9.636E+00  7.227E-01  1.955E+00
   2    3    6     3     2    7.1748E+00  2.4905E+00   4.6843E+00  0.000E+00  0.000E+00  0.000E+00  1.07264E+03  1.727E+00  8.909E+00  6.682E-01  1.864E+00
   2    3    7     3     3    4.6843E+00  1.9718E+00   2.7125E+00  0.000E+00  0.000E+00  0.000E+00  1.06987E+03  1.555E+00  8.218E+00  5.547E-01  1.777E+00
   2    4    8     3     4    2.7125E+00  2.2567E+00   4.5579E-01  0.000E+00  0.000E+00  0.000E+00  1.06682E+03  1.364E+00  7.455E+00  6.709E-01  1.682E+00
   2    5    8     3     5    4.5579E-01  4.5579E-01   0.0000E+00  0.000E+00  0.000E+00  0.000E+00  1.06362E+03  0.000E+00  6.655E+00  4.991E-01  1.582E+00
   2    6    8     3     6    0.0000E+00  0.0000E+00   0.0000E+00  0.000E+00  0.000E+00  0.000E+00  1.06055E+03  0.000E+00  6.145E+00  1.844E-01  1.000E+00
   2    5   10     4     1    1.0000E+01  9.0525E-01   9.0947E+00  0.000E+00  0.000E+00  0.000E+00  1.07835E+03  6.210E-01  1.000E+01  2.500E-01  1.207E+00
   2    5    9     4     2    9.0947E+00  1.7835E+00   7.3113E+00  0.000E+00  0.000E+00  0.000E+00  1.07148E+03  5.670E-01  1.000E+01  5.000E-01  1.189E+00
   2    6    8     4     3    7.3113E+00  1.2257E+00   6.0855E+00  0.000E+00  0.000E+00  0.000E+00  1.06368E+03  5.021E-01  1.000E+01  3.500E-01  1.167E+00
   2    6    8     5     1    6.0855E+00  1.4716E+00   4.6139E+00  0.000E+00  0.000E+00  0.000E+00  1.05854E+03  5.396E-01  1.039E+01  4.158E-01  1.180E+00
   2    7    7     5     2    4.6139E+00  1.4897E+00   3.1242E+00  0.000E+00  0.000E+00  0.000E+00  1.05398E+03  4.817E-01  8.557E+00  4.279E-01  1.161E+00
   2    8    7     5     3    3.1242E+00  8.2855E-01   2.2957E+00  0.000E+00  0.000E+00  0.000E+00  1.04968E+03  4.253E-01  6.911E+00  2.419E-01  1.142E+00
   2    8    6     5     4    2.2957E+00  4.9455E-01   1.8011E+00  0.000E+00  0.000E+00  0.000E+00  1.04664E+03  3.856E-01  5.843E+00  1.461E-01  1.129E+00
   2    9    6     6     1    1.2012E+02  3.6154E+00   1.1651E+02  0.000E+00  0.000E+00  0.000E+00  1.04575E+03  3.026E+00  1.200E+01  6.000E-01  2.009E+00
   2   10    7     6     2    1.1651E+02  3.5806E+00   1.1293E+02  0.000E+00  0.000E+00  0.000E+00  1.04115E+03  2.968E+00  1.200E+01  6.000E-01  1.989E+00
   2   11    7     6     3    1.1293E+02  2.5447E+00   1.1038E+02  0.000E+00  0.000E+00  0.000E+00  1.03655E+03  2.918E+00  1.200E+01  6.000E-01  1.414E+00
   2   12    7     6     4    1.1038E+02  1.2800E+00   1.0910E+02  0.000E+00  0.000E+00  0.000E+00  1.03198E+03  2.886E+00  1.200E+01  6.000E-01  7.111E-01
   2   13    7     6     5    1.0910E+02 -1.8325E-01   1.0929E+02  0.000E+00  0.000E+00  0.000E+00  1.02879E+03  2.877E+00  1.200E+01  2.400E-01 -2.545E-01
   2   14    9     7     1    1.5000E+02  2.8742E+00   1.4713E+02  0.000E+00  0.000E+00  0.000E+00  1.03986E+03  2.284E+00  5.528E+01  5.591E+00  1.714E-01
   2   13    8     7     2    1.4713E+02  3.5402E+00   1.4359E+02  0.000E+00  0.000E+00  0.000E+00  1.03477E+03  2.267E+00  5.520E+01  6.141E+00  1.922E-01
   2   13    7     7     3    1.4359E+02  6.9463E-01   1.4289E+02  0.000E+00  0.000E+00  0.000E+00  1.02967E+03  2.255E+00  5.515E+01  5.577E+00  4.152E-02
   2   13    6     8     1    2.5218E+02 -2.7442E-01   2.5300E+02  5.484E-01  0.000E+00  0.000E+00  1.02527E+03  3.400E+00  4.930E+01  5.024E+00 -1.821E-02
   2   13    5     8     2    2.5300E+02 -3.1873E+00   2.5674E+02  5.484E-01  0.000E+00  0.000E+00  1.01904E+03  3.412E+00  4.947E+01  5.041E+00 -2.108E-01
   2   13    4     8     3    2.5674E+02 -5.2749E+00   2.6256E+02  5.484E-01  0.000E+00  0.000E+00  1.01281E+03  3.436E+00  4.982E+01  5.077E+00 -3.463E-01
   2   13    3     8     4    2.6256E+02 -6.0057E+00   2.6911E+02  5.484E-01  0.000E+00  0.000E+00  1.00659E+03  3.467E+00  5.027E+01  5.123E+00 -3.908E-01
   2   13    2     8     5    2.6911E+02 -4.4709E+00   2.7413E+02  5.484E-01  0.000E+00  0.000E+00  1.00037E+03  3.496E+00  5.069E+01  5.165E+00 -2.885E-01
   2   13    1     8     6    2.7413E+02 -2.8787E+00   2.7734E+02  3.290E-01  0.000E+00  0.000E+00  9.95391E+02  3.516E+00  5.098E+01  3.117E+00 -3.079E-01
   2    4    5     9     1    0.0000E+00  0.0000E+00   0.0000E+00  0.000E+00  0.000E+00  0.000E+00  1.06000E+03  1.972E-04  2.000E+01  2.000E-03 -3.121E-01
   2    4    5    10     1    0.0000E+00  0.0000E+00   0.0000E+00  0.000E+00  0.000E+00  0.000E+00  1.08000E+03  0.000E+00  2.000E+01  2.000E-03  1.000E+00





     0  LAKE CELLS ARE DRY.

 PERIOD     9     TIME STEP    10     TIME STEP LENGTH  1.7520E+05
 PERIOD TIME  1.7520E+06     TOTAL SIMULATION TIME  2.2776E+07


                 HYDROLOGIC BUDGET SUMMARIES FOR SIMULATED LAKES
     (ALL FLUID FLUXES ARE VOLUMES ADDED TO THE LAKE DURING PRESENT TIME STEP)
     ----------------------------------------------------------------------------------------
 LAKE    STAGE         VOLUME     VOL. CHANGE      PRECIP     EVAPORATION    SPECIFIED RUNOFF     COMPUTED RUNOFF    TOTAL RUNOFF
   1  1.074507E+03  1.241828E+03  9.806641E+00  0.000000E+00  1.371091E+02   0.000000E+00          0.000000E+00      0.000000E+00

            GROUND WATER            SURFACE WATER        WATER          UZF INFIL.
 LAKE    INFLOW     OUTFLOW      INFLOW     OUTFLOW       USE        FROM LAKE
   1  0.0000E+00  0.0000E+00  0.0000E+00  0.0000E+00  0.0000E+00       1.8119E+02

      CONNECTED LAKE   TIME-STEP         STAGE-CHANGE          PERCENT
 LAKE    INFLUX      SURFACE AREA   TIME STEP  CUMULATIVE    DISCREPANCY
   1   0.0000E+00     1.9565E+04   9.5469E-05  7.4197E-03    -103.081
 --------------------------------------------------------------------------------



            CUMULATIVE HYDROLOGIC BUDGET SUMMARIES FOR SIMULATED LAKES
     (ALL FLUID FLUXES ARE SUMS OF VOLUMES ADDED TO THE LAKE SINCE INITIAL TIME)
     ---------------------------------------------------------------------------
 LAKE       PRECIP       EVAP     SPECIFIED RUNOFF   COMPUTED RUNOFF   TOTAL RUNOFF
   1     0.0000E+00  1.6094E+06       0.0000E+00       0.0000E+00       0.0000E+00

            GROUND WATER            SURFACE WATER       UZF INFIL.
 LAKE    INFLOW     OUTFLOW      INFLOW     OUTFLOW     FROM LAKE
   1  0.0000E+00  0.0000E+00  1.9325E+08  4.8782E+07    1.4291E+08

         WATER    CONNECTED LAKE   CHANGE       PERCENT
 LAKE     USE         INFLUX       IN VOL.    DISCREPANCY
   1   0.0000E+00   0.0000E+00   1.2418E+03     -0.028
 --------------------------------------------------------------------------------

 UBDSV3 SAVING "           GW ET" ON UNIT  61 AT TIME STEP    10, STRESS PERIOD   9
 UBDSV3 SAVING "    UZF RECHARGE" ON UNIT  61 AT TIME STEP    10, STRESS PERIOD   9
 UBDSV3 SAVING " SURFACE LEAKAGE" ON UNIT  61 AT TIME STEP    10, STRESS PERIOD   9
 UBDSV3 SAVING "       HORT+DUNN" ON UNIT  61 AT TIME STEP    10, STRESS PERIOD   9
 UBDSV3 SAVING "  STORAGE CHANGE" ON UNIT  61 AT TIME STEP    10, STRESS PERIOD   9


UNSATURATED ZONE PACKAGE VOLUMETRIC BUDGET FOR  TIME STEP    10 STRESS PERIOD    9
  ------------------------------------------------------------------------------



     CUMULATIVE VOLUMES      L**3       RATES FOR THIS TIME STEP      L**3/T
     ------------------                 ------------------------

           IN:                                      IN:
           ---                                      ---
        INFILTRATION =  1541228658.1089          INFILTRATION =          25.2336

          OUT:                                     OUT:
          ----                                     ----
              UZF ET =  1405882799.4232                UZF ET =          37.2426
        UZF RECHARGE =   693400544.3939          UZF RECHARGE =           8.2164

            IN - OUT =  -558054685.7083              IN - OUT =         -20.2254

          STORAGE:                                 STORAGE:
          --------                                 --------
      STORAGE CHANGE =  -558073481.1483        STORAGE CHANGE =         -20.2177

 PERCENT DISCREPANCY IS DIFFERENCE BETWEEN IN-OUT MINUS CHANGE IN STORAGE
 DIVIDED BY THE AVERAGE OF IN AND OUT TIMES 100

 PERCENT DISCREPANCY =           0.00     PERCENT DISCREPANCY =          -0.02






1
  VOLUMETRIC BUDGET FOR ENTIRE MODEL AT END OF TIME STEP   10, STRESS PERIOD   9
  ------------------------------------------------------------------------------

     CUMULATIVE VOLUMES      L**3       RATES FOR THIS TIME STEP      L**3/T
     ------------------                 ------------------------

           IN:                                      IN:
           ---                                      ---
             STORAGE =   170023136.0000               STORAGE =          11.7279
       CONSTANT HEAD =           0.0000         CONSTANT HEAD =           0.0000
               WELLS =           0.0000                 WELLS =           0.0000
     HEAD DEP BOUNDS =     4885165.5000       HEAD DEP BOUNDS =           0.2147
      STREAM LEAKAGE =  1760386688.0000        STREAM LEAKAGE =          73.0053
       LAKE  SEEPAGE =           0.0000         LAKE  SEEPAGE =           0.0000
        UZF RECHARGE =   693400384.0000          UZF RECHARGE =           8.2164
               GW ET =           0.0000                 GW ET =           0.0000
     SURFACE LEAKAGE =           0.0000       SURFACE LEAKAGE =           0.0000

            TOTAL IN =  2628695296.0000              TOTAL IN =          93.1643

          OUT:                                     OUT:
          ----                                     ----
             STORAGE =  1570952704.0000               STORAGE =          44.1614
       CONSTANT HEAD =           0.0000         CONSTANT HEAD =           0.0000
               WELLS =   306600000.0000                 WELLS =          10.0000
     HEAD DEP BOUNDS =     6938062.5000       HEAD DEP BOUNDS =           0.3159
      STREAM LEAKAGE =   399890688.0000        STREAM LEAKAGE =          22.2752
       LAKE  SEEPAGE =           0.0000         LAKE  SEEPAGE =           0.0000
        UZF RECHARGE =           0.0000          UZF RECHARGE =           0.0000
               GW ET =   326327584.0000                 GW ET =          18.3378
     SURFACE LEAKAGE =    85655128.0000       SURFACE LEAKAGE =           2.9505

           TOTAL OUT =  2696364032.0000             TOTAL OUT =          98.0409

            IN - OUT =   -67668736.0000              IN - OUT =          -4.8766

 PERCENT DISCREPANCY =          -2.54     PERCENT DISCREPANCY =          -5.10






         TIME SUMMARY AT END OF TIME STEP   10 IN STRESS PERIOD    9
                    SECONDS     MINUTES      HOURS       DAYS        YEARS
                    -----------------------------------------------------------
   TIME STEP LENGTH 1.75200E+05  2920.0      48.667      2.0278     5.55175E-03
 STRESS PERIOD TIME 1.75200E+06  29200.      486.67      20.278     5.55175E-02
         TOTAL TIME 2.27760E+07 3.79600E+05  6326.7      263.61     0.72173    
1
 
 SOLVING FOR HEAD 
                                                   Max.-Head-Change                         Max.-Flux-Residual
  Residual-Control   Outer-Iter.   Inner-Iter.     Column Row Layer    Maximum-Head-Change  Column Row Layer    Maximum-Flux-Residual          L2-NORM 
          0                 1           2             3    2     2       0.7007449161E-01       3    2    2         0.1912479544E+01      0.6811480912E+01
          0                 2           2             6   13     2       0.4444798252E-02       6   13    2         0.1520427840E+00      0.4840637895E+00
          0                 3           1             6   13     2      -0.2370369262E-03       6   13    2        -0.8446025506E-02      0.2138525424E-01

    ------------------------------------------------
       NWT REQUIRED            3 OUTER ITERATIONS 
       AND A TOTAL OF          5 INNER ITERATIONS.
    ------------------------------------------------

 NO OUTPUT CONTROL FOR STRESS PERIOD    9   TIME STEP   11
 
 SOLVING FOR HEAD 
                                                   Max.-Head-Change                         Max.-Flux-Residual
  Residual-Control   Outer-Iter.   Inner-Iter.     Column Row Layer    Maximum-Head-Change  Column Row Layer    Maximum-Flux-Residual          L2-NORM 
          0                 1           2             3    2     2       0.6667962852E-01       3    2    2         0.1816788327E+01      0.6341751417E+01
          0                 2           2             6   13     2       0.3989533726E-02       6   13    2         0.1366141988E+00      0.4507197798E+00
          0                 3           1             6   13     2      -0.2131729747E-03       6   13    2        -0.7604517223E-02      0.1959471512E-01

    ------------------------------------------------
       NWT REQUIRED            3 OUTER ITERATIONS 
       AND A TOTAL OF          5 INNER ITERATIONS.
    ------------------------------------------------

 NO OUTPUT CONTROL FOR STRESS PERIOD    9   TIME STEP   12
 
 SOLVING FOR HEAD 
                                                   Max.-Head-Change                         Max.-Flux-Residual
  Residual-Control   Outer-Iter.   Inner-Iter.     Column Row Layer    Maximum-Head-Change  Column Row Layer    Maximum-Flux-Residual          L2-NORM 
          0                 1           2             3    2     2       0.6277441149E-01       3    2    2         0.1726839196E+01      0.6460950367E+01
          0                 2           2             6   13     2       0.4454411229E-02       6   13    2         0.1515783217E+00      0.4737442066E+00
          0                 3           1             6   13     2      -0.2367862587E-03       6   13    2        -0.8392859802E-02      0.2150786852E-01

    ------------------------------------------------
       NWT REQUIRED            3 OUTER ITERATIONS 
       AND A TOTAL OF          5 INNER ITERATIONS.
    ------------------------------------------------

 NO OUTPUT CONTROL FOR STRESS PERIOD    9   TIME STEP   13
 
 SOLVING FOR HEAD 
                                                   Max.-Head-Change                         Max.-Flux-Residual
  Residual-Control   Outer-Iter.   Inner-Iter.     Column Row Layer    Maximum-Head-Change  Column Row Layer    Maximum-Flux-Residual          L2-NORM 
          0                 1           2             3    2     2       0.5867032130E-01       3    2    2         0.1626155367E+01      0.6483778883E+01
          0                 2           2             2    2     2       0.4607827785E-02       6   13    2         0.1520363706E+00      0.4868347321E+00
          0                 3           1             2    2     2      -0.2642735131E-03       6   13    2        -0.8377900525E-02      0.2282881472E-01

    ------------------------------------------------
       NWT REQUIRED            3 OUTER ITERATIONS 
       AND A TOTAL OF          5 INNER ITERATIONS.
    ------------------------------------------------

 NO OUTPUT CONTROL FOR STRESS PERIOD    9   TIME STEP   14
 
 SOLVING FOR HEAD 
                                                   Max.-Head-Change                         Max.-Flux-Residual
  Residual-Control   Outer-Iter.   Inner-Iter.     Column Row Layer    Maximum-Head-Change  Column Row Layer    Maximum-Flux-Residual          L2-NORM 
          0                 1           2             3    2     2       0.5496287547E-01       3    2    2         0.1521169311E+01      0.6062392116E+01
          0                 2           2             2    2     2       0.4029188536E-02       2    2    2         0.1225456096E+00      0.4499976013E+00
          0                 3           1             2    2     2      -0.2311065057E-03       2    2    2        -0.7197498190E-02      0.2077131162E-01

    ------------------------------------------------
       NWT REQUIRED            3 OUTER ITERATIONS 
       AND A TOTAL OF          5 INNER ITERATIONS.
    ------------------------------------------------

 OUTPUT CONTROL FOR STRESS PERIOD    9   TIME STEP   15
    PRINT BUDGET
    PRINT HEAD FOR ALL LAYERS
    SAVE HEAD FOR ALL LAYERS
    SAVE BUDGET

            WELLS   PERIOD    9   STEP  15
 WELL      1   LAYER   2   ROW     6   COL     4   RATE    -1.00000    
 WELL      2   LAYER   2   ROW     6   COL     5   RATE    -1.00000    
 WELL      3   LAYER   2   ROW     7   COL     4   RATE    -1.00000    
 WELL      4   LAYER   2   ROW     7   COL     5   RATE    -1.00000    
 WELL      5   LAYER   2   ROW     8   COL     4   RATE    -1.00000    
 WELL      6   LAYER   2   ROW     8   COL     5   RATE    -1.00000    
 WELL      7   LAYER   2   ROW     9   COL     4   RATE    -1.00000    
 WELL      8   LAYER   2   ROW     9   COL     5   RATE    -1.00000    
 WELL      9   LAYER   2   ROW    10   COL     4   RATE    -1.00000    
 WELL     10   LAYER   2   ROW    10   COL     5   RATE    -1.00000    

  HEAD DEP BOUNDS   PERIOD    9   STEP    15
 BOUNDARY      1   LAYER   2   ROW    13   COL     1   RATE   -0.310619    
 BOUNDARY      2   LAYER   2   ROW    14   COL     9   RATE    0.214680    



 STREAM LISTING     PERIOD      9   STEP       15

 LAYER ROW COL. STREAM  RCH.  FLOW INTO     FLOW TO   FLOW OUT OF   OVRLND.     DIRECT     STREAM       STREAM     STREAM     STREAM   STREAMBED  STREAMBED
                SEG.NO.  NO.  STRM. RCH.    AQUIFER    STRM. RCH.    RUNOFF     PRECIP       ET          HEAD       DEPTH      WIDTH   CONDCTNC.   GRADIENT

   2    1    1     1     1    1.2800E+02  1.3917E+00   1.2661E+02  0.000E+00  0.000E+00  0.000E+00  1.09502E+03  1.969E+00  2.409E+01  1.084E+00  4.279E-01
   2    2    2     1     2    1.2661E+02  4.7827E+00   1.2183E+02  0.000E+00  0.000E+00  0.000E+00  1.09001E+03  1.951E+00  2.387E+01  1.671E+00  9.541E-01
   2    3    3     1     3    1.2183E+02  6.9150E+00   1.1491E+02  0.000E+00  0.000E+00  0.000E+00  1.08434E+03  1.917E+00  2.344E+01  1.406E+00  1.639E+00
   2    3    4     1     4    1.1491E+02  6.2093E+00   1.0870E+02  0.000E+00  0.000E+00  0.000E+00  1.07928E+03  1.876E+00  2.294E+01  1.273E+00  1.625E+00
   2    4    5     2     1    9.8701E+01  0.0000E+00   9.8701E+01  0.000E+00  0.000E+00  0.000E+00  1.07465E+03  2.715E+00  1.200E+01  7.800E-01  1.905E+00
   2    5    6     2     2    9.8701E+01  3.3890E+00   9.5312E+01  0.000E+00  0.000E+00  0.000E+00  1.06916E+03  2.648E+00  1.200E+01  6.000E-01  1.883E+00
   2    6    6     2     3    9.5312E+01  3.3540E+00   9.1958E+01  0.000E+00  0.000E+00  0.000E+00  1.06438E+03  2.590E+00  1.200E+01  6.000E-01  1.863E+00
   2    7    6     2     4    9.1958E+01  3.3188E+00   8.8640E+01  0.000E+00  0.000E+00  0.000E+00  1.05961E+03  2.531E+00  1.200E+01  6.000E-01  1.844E+00
   2    8    6     2     5    8.8640E+01  3.2835E+00   8.5356E+01  0.000E+00  0.000E+00  0.000E+00  1.05483E+03  2.473E+00  1.200E+01  6.000E-01  1.824E+00
   2    3    5     3     1    1.0000E+01  2.8252E+00   7.1748E+00  0.000E+00  0.000E+00  0.000E+00  1.07555E+03  1.909E+00  9.636E+00  7.227E-01  1.955E+00
   2    3    6     3     2    7.1748E+00  2.4905E+00   4.6843E+00  0.000E+00  0.000E+00  0.000E+00  1.07264E+03  1.727E+00  8.909E+00  6.682E-01  1.864E+00
   2    3    7     3     3    4.6843E+00  1.9718E+00   2.7125E+00  0.000E+00  0.000E+00  0.000E+00  1.06987E+03  1.555E+00  8.218E+00  5.547E-01  1.777E+00
   2    4    8     3     4    2.7125E+00  2.2567E+00   4.5579E-01  0.000E+00  0.000E+00  0.000E+00  1.06682E+03  1.364E+00  7.455E+00  6.709E-01  1.682E+00
   2    5    8     3     5    4.5579E-01  4.5579E-01   0.0000E+00  0.000E+00  0.000E+00  0.000E+00  1.06362E+03  0.000E+00  6.655E+00  4.991E-01  1.582E+00
   2    6    8     3     6    0.0000E+00  0.0000E+00   0.0000E+00  0.000E+00  0.000E+00  0.000E+00  1.06055E+03  0.000E+00  6.145E+00  1.844E-01  1.000E+00
   2    5   10     4     1    1.0000E+01  9.0525E-01   9.0947E+00  0.000E+00  0.000E+00  0.000E+00  1.07835E+03  6.210E-01  1.000E+01  2.500E-01  1.207E+00
   2    5    9     4     2    9.0947E+00  1.7835E+00   7.3113E+00  0.000E+00  0.000E+00  0.000E+00  1.07148E+03  5.670E-01  1.000E+01  5.000E-01  1.189E+00
   2    6    8     4     3    7.3113E+00  1.2257E+00   6.0855E+00  0.000E+00  0.000E+00  0.000E+00  1.06368E+03  5.021E-01  1.000E+01  3.500E-01  1.167E+00
   2    6    8     5     1    6.0855E+00  1.4716E+00   4.6139E+00  0.000E+00  0.000E+00  0.000E+00  1.05854E+03  5.396E-01  1.039E+01  4.158E-01  1.180E+00
   2    7    7     5     2    4.6139E+00  1.4897E+00   3.1242E+00  0.000E+00  0.000E+00  0.000E+00  1.05398E+03  4.817E-01  8.557E+00  4.279E-01  1.161E+00
   2    8    7     5     3    3.1242E+00  8.2855E-01   2.2957E+00  0.000E+00  0.000E+00  0.000E+00  1.04968E+03  4.253E-01  6.911E+00  2.419E-01  1.142E+00
   2    8    6     5     4    2.2957E+00  4.9455E-01   1.8011E+00  0.000E+00  0.000E+00  0.000E+00  1.04664E+03  3.856E-01  5.843E+00  1.461E-01  1.129E+00
   2    9    6     6     1    8.7157E+01  3.2839E+00   8.3873E+01  0.000E+00  0.000E+00  0.000E+00  1.04520E+03  2.473E+00  1.200E+01  6.000E-01  1.824E+00
   2   10    7     6     2    8.3873E+01  3.2477E+00   8.0626E+01  0.000E+00  0.000E+00  0.000E+00  1.04059E+03  2.413E+00  1.200E+01  6.000E-01  1.804E+00
   2   11    7     6     3    8.0626E+01  2.2310E+00   7.8395E+01  0.000E+00  0.000E+00  0.000E+00  1.03600E+03  2.362E+00  1.200E+01  6.000E-01  1.239E+00
   2   12    7     6     4    7.8395E+01  9.9258E-01   7.7402E+01  0.000E+00  0.000E+00  0.000E+00  1.03142E+03  2.331E+00  1.200E+01  6.000E-01  5.514E-01
   2   13    7     6     5    7.7402E+01 -3.0463E-01   7.7707E+01  0.000E+00  0.000E+00  0.000E+00  1.02823E+03  2.324E+00  1.200E+01  2.400E-01 -4.231E-01
   2   14    9     7     1    1.5000E+02  2.8726E+00   1.4713E+02  0.000E+00  0.000E+00  0.000E+00  1.03986E+03  2.284E+00  5.528E+01  5.591E+00  1.713E-01
   2   13    8     7     2    1.4713E+02  3.5436E+00   1.4358E+02  0.000E+00  0.000E+00  0.000E+00  1.03477E+03  2.267E+00  5.520E+01  6.141E+00  1.924E-01
   2   13    7     7     3    1.4358E+02  9.5357E-01   1.4263E+02  0.000E+00  0.000E+00  0.000E+00  1.02967E+03  2.254E+00  5.514E+01  5.577E+00  5.700E-02
   2   13    6     8     1    2.2034E+02 -3.9386E-02   2.2061E+02  2.303E-01  0.000E+00  0.000E+00  1.02510E+03  3.230E+00  4.683E+01  4.772E+00 -2.751E-03
   2   13    5     8     2    2.2061E+02 -3.1126E+00   2.2395E+02  2.303E-01  0.000E+00  0.000E+00  1.01886E+03  3.240E+00  4.698E+01  4.787E+00 -2.167E-01
   2   13    4     8     3    2.2395E+02 -5.3642E+00   2.2954E+02  2.303E-01  0.000E+00  0.000E+00  1.01264E+03  3.265E+00  4.734E+01  4.824E+00 -3.707E-01
   2   13    3     8     4    2.2954E+02 -6.0495E+00   2.3582E+02  2.303E-01  0.000E+00  0.000E+00  1.00642E+03  3.297E+00  4.781E+01  4.872E+00 -4.139E-01
   2   13    2     8     5    2.3582E+02 -4.2124E+00   2.4027E+02  2.303E-01  0.000E+00  0.000E+00  1.00020E+03  3.326E+00  4.822E+01  4.914E+00 -2.857E-01
   2   13    1     8     6    2.4027E+02 -2.8286E+00   2.4323E+02  1.382E-01  0.000E+00  0.000E+00  9.95221E+02  3.346E+00  4.851E+01  2.966E+00 -3.179E-01
   2    4    5     9     1    0.0000E+00  0.0000E+00   0.0000E+00  0.000E+00  0.000E+00  0.000E+00  1.06000E+03  1.910E-04  2.000E+01  2.000E-03 -2.958E-01
   2    4    5    10     1    0.0000E+00  0.0000E+00   0.0000E+00  0.000E+00  0.000E+00  0.000E+00  1.08000E+03  0.000E+00  2.000E+01  2.000E-03  1.000E+00





     0  LAKE CELLS ARE DRY.

 PERIOD     9     TIME STEP    15     TIME STEP LENGTH  1.7520E+05
 PERIOD TIME  2.6280E+06     TOTAL SIMULATION TIME  2.3652E+07


                 HYDROLOGIC BUDGET SUMMARIES FOR SIMULATED LAKES
     (ALL FLUID FLUXES ARE VOLUMES ADDED TO THE LAKE DURING PRESENT TIME STEP)
     ----------------------------------------------------------------------------------------
 LAKE    STAGE         VOLUME     VOL. CHANGE      PRECIP     EVAPORATION    SPECIFIED RUNOFF     COMPUTED RUNOFF    TOTAL RUNOFF
   1  1.074507E+03  1.235515E+03 -5.681030E+00  0.000000E+00  1.364121E+02   0.000000E+00          0.000000E+00      0.000000E+00

            GROUND WATER            SURFACE WATER        WATER          UZF INFIL.
 LAKE    INFLOW     OUTFLOW      INFLOW     OUTFLOW       USE        FROM LAKE
   1  0.0000E+00  0.0000E+00  0.0000E+00  0.0000E+00  0.0000E+00       1.8026E+02

      CONNECTED LAKE   TIME-STEP         STAGE-CHANGE          PERCENT
 LAKE    INFLUX      SURFACE AREA   TIME STEP  CUMULATIVE    DISCREPANCY
   1   0.0000E+00     1.9465E+04  -6.4319E-05  7.3820E-03     -98.206
 --------------------------------------------------------------------------------



            CUMULATIVE HYDROLOGIC BUDGET SUMMARIES FOR SIMULATED LAKES
     (ALL FLUID FLUXES ARE SUMS OF VOLUMES ADDED TO THE LAKE SINCE INITIAL TIME)
     ---------------------------------------------------------------------------
 LAKE       PRECIP       EVAP     SPECIFIED RUNOFF   COMPUTED RUNOFF   TOTAL RUNOFF
   1     0.0000E+00  1.6101E+06       0.0000E+00       0.0000E+00       0.0000E+00

            GROUND WATER            SURFACE WATER       UZF INFIL.
 LAKE    INFLOW     OUTFLOW      INFLOW     OUTFLOW     FROM LAKE
   1  0.0000E+00  0.0000E+00  1.9325E+08  4.8782E+07    1.4291E+08

         WATER    CONNECTED LAKE   CHANGE       PERCENT
 LAKE     USE         INFLUX       IN VOL.    DISCREPANCY
   1   0.0000E+00   0.0000E+00   1.2355E+03     -0.029
 --------------------------------------------------------------------------------

 UBDSV3 SAVING "           GW ET" ON UNIT  61 AT TIME STEP    15, STRESS PERIOD   9
 UBDSV3 SAVING "    UZF RECHARGE" ON UNIT  61 AT TIME STEP    15, STRESS PERIOD   9
 UBDSV3 SAVING " SURFACE LEAKAGE" ON UNIT  61 AT TIME STEP    15, STRESS PERIOD   9
 UBDSV3 SAVING "       HORT+DUNN" ON UNIT  61 AT TIME STEP    15, STRESS PERIOD   9
 UBDSV3 SAVING "  STORAGE CHANGE" ON UNIT  61 AT TIME STEP    15, STRESS PERIOD   9


UNSATURATED ZONE PACKAGE VOLUMETRIC BUDGET FOR  TIME STEP    15 STRESS PERIOD    9
  ------------------------------------------------------------------------------



     CUMULATIVE VOLUMES      L**3       RATES FOR THIS TIME STEP      L**3/T
     ------------------                 ------------------------

           IN:                                      IN:
           ---                                      ---
        INFILTRATION =  1563362859.8570          INFILTRATION =          25.2865

          OUT:                                     OUT:
          ----                                     ----
              UZF ET =  1438107786.2921                UZF ET =          36.3758
        UZF RECHARGE =   700226748.5169          UZF RECHARGE =           7.5222

            IN - OUT =  -574971674.9521              IN - OUT =         -18.6115

          STORAGE:                                 STORAGE:
          --------                                 --------
      STORAGE CHANGE =  -574986900.7610        STORAGE CHANGE =         -18.6101

 PERCENT DISCREPANCY IS DIFFERENCE BETWEEN IN-OUT MINUS CHANGE IN STORAGE
 DIVIDED BY THE AVERAGE OF IN AND OUT TIMES 100

 PERCENT DISCREPANCY =           0.00     PERCENT DISCREPANCY =          -0.00






1
              HEAD IN LAYER   1 AT END OF TIME STEP    15 IN STRESS PERIOD    9
  -----------------------------------------------------------------------------

           1       2       3       4       5       6       7       8       9      10
 ...................................................................................
   1  6999.00 6999.00 6999.00 6999.00 6999.00 6999.00 6999.00 6999.00 6999.00 6999.00
   2  6999.00 6999.00 6999.00 6999.00 6999.00 6999.00 6999.00 6999.00 6999.00 6999.00
   3  6999.00 6999.00 6999.00 6999.00 6999.00 6999.00 6999.00 6999.00 6999.00 6999.00
   4  6999.00 6999.00 6999.00 6999.00 1074.51 6999.00 6999.00 6999.00 6999.00 6999.00
   5  6999.00 6999.00 6999.00 6999.00 6999.00 6999.00 6999.00 6999.00 6999.00 6999.00
   6  6999.00 6999.00 6999.00 6999.00 6999.00 6999.00 6999.00 6999.00 6999.00 6999.00
   7  6999.00 6999.00 6999.00 6999.00 6999.00 6999.00 6999.00 6999.00 6999.00 6999.00
   8  6999.00 6999.00 6999.00 6999.00 6999.00 6999.00 6999.00 6999.00 6999.00 6999.00
   9  6999.00 6999.00 6999.00 6999.00 6999.00 6999.00 6999.00 6999.00 6999.00 6999.00
  10  6999.00 6999.00 6999.00 6999.00 6999.00 6999.00 6999.00 6999.00 6999.00 6999.00
  11  6999.00 6999.00 6999.00 6999.00 6999.00 6999.00 6999.00 6999.00 6999.00 6999.00
  12  6999.00 6999.00 6999.00 6999.00 6999.00 6999.00 6999.00 6999.00 6999.00 6999.00
  13  6999.00 6999.00 6999.00 6999.00 6999.00 6999.00 6999.00 6999.00 6999.00 6999.00
  14  6999.00 6999.00 6999.00 6999.00 6999.00 6999.00 6999.00 6999.00 6999.00 6999.00
  15  6999.00 6999.00 6999.00 6999.00 6999.00 6999.00 6999.00 6999.00 6999.00 6999.00
1
              HEAD IN LAYER   2 AT END OF TIME STEP    15 IN STRESS PERIOD    9
  -----------------------------------------------------------------------------

           1       2       3       4       5       6       7       8       9      10
 ...................................................................................
   1  1093.73 1088.96 6999.00 6999.00 6999.00 6999.00 6999.00 6999.00 6999.00 6999.00
   2  1088.33 1087.15 1080.44 6999.00 6999.00 1067.82 1067.09 1065.36 6999.00 6999.00
   3  6999.00 1075.88 1076.06 1071.81 1069.13 1067.20 1065.88 1063.80 6999.00 6999.00
   4  1061.90 1064.07 1065.25 1062.57 1060.89 1058.82 1058.17 1060.19 1058.07 6999.00
   5  1057.84 1055.83 1055.50 1054.96 1054.71 1054.79 1053.13 1053.37 1055.86 1057.81
   6  1053.72 1050.19 1048.82 1048.80 1049.23 1050.82 1050.34 1051.20 1052.65 1057.05
   7  1050.74 1045.15 1043.38 1043.54 1044.46 1046.68 1047.02 1048.05 1049.21 6999.00
   8  6999.00 1039.49 1038.41 1038.78 1039.84 1042.32 1042.77 1044.15 1045.37 6999.00
   9  6999.00 1033.58 1033.20 1033.86 1035.06 1037.57 1038.24 1038.45 1040.92 6999.00
  10  6999.00 1027.52 1027.87 1029.14 1030.63 1032.98 1035.12 1034.99 1037.41 1040.49
  11  6999.00 1019.90 1021.20 1024.50 1026.79 1029.48 1032.28 1032.73 1035.18 6999.00
  12  1003.25 1009.94 1014.26 1018.95 1022.79 1026.59 1029.77 1031.57 1034.80 6999.00
  13   996.17 1001.06 1007.66 1013.75 1019.51 1025.11 1029.50 1034.19 1036.74 6999.00
  14  6999.00 1007.10 1010.93 1015.88 1021.03 1025.93 1030.29 1035.23 1039.35 6999.00
  15  6999.00 6999.00 1018.67 1021.45 1025.08 1028.08 6999.00 6999.00 6999.00 6999.00

 HEAD WILL BE SAVED ON UNIT   58 AT END OF TIME STEP   15, STRESS PERIOD    9
1
  VOLUMETRIC BUDGET FOR ENTIRE MODEL AT END OF TIME STEP   15, STRESS PERIOD   9
  ------------------------------------------------------------------------------

     CUMULATIVE VOLUMES      L**3       RATES FOR THIS TIME STEP      L**3/T
     ------------------                 ------------------------

           IN:                                      IN:
           ---                                      ---
             STORAGE =   178480368.0000               STORAGE =           9.7912
       CONSTANT HEAD =           0.0000         CONSTANT HEAD =           0.0000
               WELLS =           0.0000                 WELLS =           0.0000
     HEAD DEP BOUNDS =     5073228.5000       HEAD DEP BOUNDS =           0.2147
      STREAM LEAKAGE =  1822140288.0000        STREAM LEAKAGE =          67.9678
       LAKE  SEEPAGE =           0.0000         LAKE  SEEPAGE =           0.0000
        UZF RECHARGE =   700226624.0000          UZF RECHARGE =           7.5222
               GW ET =           0.0000                 GW ET =           0.0000
     SURFACE LEAKAGE =           0.0000       SURFACE LEAKAGE =           0.0000

            TOTAL IN =  2705920512.0000              TOTAL IN =          85.4958

          OUT:                                     OUT:
          ----                                     ----
             STORAGE =  1606615808.0000               STORAGE =          38.1861
       CONSTANT HEAD =           0.0000         CONSTANT HEAD =           0.0000
               WELLS =   315360000.0000                 WELLS =          10.0000
     HEAD DEP BOUNDS =     7212071.0000       HEAD DEP BOUNDS =           0.3106
      STREAM LEAKAGE =   418903328.0000        STREAM LEAKAGE =          21.9113
       LAKE  SEEPAGE =           0.0000         LAKE  SEEPAGE =           0.0000
        UZF RECHARGE =           0.0000          UZF RECHARGE =           0.0000
               GW ET =   342391232.0000                 GW ET =          18.3184
     SURFACE LEAKAGE =    87189088.0000       SURFACE LEAKAGE =           1.2247

           TOTAL OUT =  2777671424.0000             TOTAL OUT =          89.9511

            IN - OUT =   -71750912.0000              IN - OUT =          -4.4553

 PERCENT DISCREPANCY =          -2.62     PERCENT DISCREPANCY =          -5.08






         TIME SUMMARY AT END OF TIME STEP   15 IN STRESS PERIOD    9
                    SECONDS     MINUTES      HOURS       DAYS        YEARS
                    -----------------------------------------------------------
   TIME STEP LENGTH 1.75200E+05  2920.0      48.667      2.0278     5.55175E-03
 STRESS PERIOD TIME 2.62800E+06  43800.      730.00      30.417     8.32763E-02
         TOTAL TIME 2.36520E+07 3.94200E+05  6570.0      273.75     0.74949    
1
1
                            STRESS PERIOD NO.   10, LENGTH =   2628000.    
                            -----------------------------------------------

                              NUMBER OF TIME STEPS =    15

                               MULTIPLIER FOR DELT =     1.000

                            INITIAL TIME STEP SIZE =   175200.0    

      0 WELLS

 REUSING NON-PARAMETER GHB CELLS FROM LAST STRESS PERIOD

      2 GHB CELLS

 REUSING STREAM SEGMENT DATA FROM LAST STRESS PERIOD



            AREAL INFILTRATION RATE
 READING ON UNIT   19 WITH FORMAT: (10F4.0)            

            1           2           3           4           5           6           7           8           9          10
 ........................................................................................................................
   1   2.0000E-09  4.0000E-09   0.000       0.000       0.000       0.000       0.000       0.000       0.000       0.000    
   2   4.0000E-09  2.0000E-09  4.0000E-09   0.000       0.000      1.6000E-08  1.6000E-08  1.0000E-08   0.000       0.000    
   3    0.000      1.0000E-08  2.0000E-09  2.0000E-09  1.6000E-08  1.6000E-08  1.0000E-08  1.0000E-08   0.000       0.000    
   4   1.6000E-08  1.0000E-08  2.0000E-09  2.0000E-09  2.0000E-09  2.0000E-09  2.0000E-09  2.0000E-09  4.0000E-09   0.000    
   5   1.6000E-08  1.0000E-08  2.0000E-09  2.0000E-09  2.0000E-09  2.0000E-09  2.0000E-09  2.0000E-09  2.0000E-09  2.0000E-09
   6   1.6000E-08  1.0000E-08  1.0000E-08  4.0000E-09  4.0000E-09  2.0000E-09  2.0000E-09  2.0000E-09  2.0000E-09  1.0000E-08
   7   1.6000E-08  1.0000E-08  1.0000E-08  4.0000E-09  4.0000E-09  2.0000E-09  2.0000E-09  4.0000E-09  4.0000E-09   0.000    
   8    0.000      1.0000E-08  1.0000E-08  4.0000E-09  4.0000E-09  2.0000E-09  2.0000E-09  4.0000E-09  1.0000E-08   0.000    
   9    0.000      1.0000E-08  1.0000E-08  4.0000E-09  4.0000E-09  2.0000E-09  2.0000E-09  4.0000E-09  1.0000E-08   0.000    
  10    0.000      1.0000E-08  1.0000E-08  4.0000E-09  4.0000E-09  2.0000E-09  2.0000E-09  4.0000E-09  1.0000E-08  1.6000E-08
  11    0.000      2.0000E-09  2.0000E-09  2.0000E-09  2.0000E-09  2.0000E-09  2.0000E-09  4.0000E-09  1.0000E-08   0.000    
  12   2.0000E-09  2.0000E-09  2.0000E-09  2.0000E-09  2.0000E-09  2.0000E-09  2.0000E-09  2.0000E-09  4.0000E-09   0.000    
  13   2.0000E-09  2.0000E-09  4.0000E-09  4.0000E-09  4.0000E-09  4.0000E-09  4.0000E-09  2.0000E-09  2.0000E-09   0.000    
  14    0.000      4.0000E-09  1.0000E-08  1.0000E-08  1.0000E-08  1.0000E-08  1.0000E-08  4.0000E-09  2.0000E-09   0.000    
  15    0.000       0.000      1.6000E-08  1.6000E-08  1.6000E-08  1.6000E-08   0.000       0.000       0.000       0.000    

USING ET RATE FROM PREVIOUS STRESS PERIOD. CURRENT PERIOD IS:      10

 USING ET EXTINCTION DEPTH FROM PREVIOUS STRESS PERIOD. CURRENT PERIOD IS:      10

 USING EXTINCTION WATER CONTENT FROM PREVIOUS STRESS PERIOD. CURRENT PERIOD IS:      10




 If any subsequent steady-state stress periods, min. and max. stages for each lake will be read in Record 9a.




 REUSING LAKE CONFIGURATION DATA FROM LAST STRESS PERIOD


 LAKE       PRECIP     EVAP     RUNOFF   WITHDRAW   BOTTOM     AREA
----------------------------------------------------------------------
   1     0.000E+00 4.000E-08 0.000E+00  0.000E+00 1.074E+03 2.500E+07




         C               INTERFACE CONDUCTANCES BETWEEN LAKE AND AQUIFER CELLS
   L     O          (IF TYPE = 6, CONDUCTANCE (L^2/T) IS BETWEEN AQUIFER CELL AND OVERLYING LAKE CELL.)
   A     L  L  T    (IF TYPE = 1 TO 4, CONDUCTANCES ARE PER UNIT SATURATED THICKNESS (L/T).)
   Y  R  U  A  Y
   E  O  M  K  P                        LAKEBED      C O N D U C T A N C E S
   R  W  N  E  E     DELTA Y   DELTA X  LEAKANCE   LAKEBED   AQUIFER  COMBINED
 _______________________________________________________________________________
   1  4  4  1  2    5.00E+03  5.00E+03  5.00E-02  2.50E+02  6.00E-03  6.00E-03
   1  3  5  1  3    5.00E+03  5.00E+03  5.00E-02  2.50E+02  1.20E-03  1.20E-03
   2  4  5  1  6    5.00E+03  5.00E+03  5.00E-02  1.25E+06  9.42E+00  9.42E+00
   1  5  5  1  4    5.00E+03  5.00E+03  5.00E-02  2.50E+02  6.00E-03  6.00E-03
   1  4  6  1  1    5.00E+03  5.00E+03  5.00E-02  2.50E+02  6.00E-03  6.00E-03
      LAKE     INFLOWING STREAM SEGMENT
         1                  9

 MAXIMUM NUMBER OF STREAMS INFLOWING TO A LAKE IS    1

      LAKE     OUTFLOWING STREAM SEGMENT
         1                 10

 MAXIMUM NUMBER OF STREAMS OUTFLOWING FROM A LAKE IS    1

 
 SOLVING FOR HEAD 
                                                   Max.-Head-Change                         Max.-Flux-Residual
  Residual-Control   Outer-Iter.   Inner-Iter.     Column Row Layer    Maximum-Head-Change  Column Row Layer    Maximum-Flux-Residual          L2-NORM 
          0                 1           2             4    7     2       0.7808557454E-01       4    7    2         0.2058244008E+01      0.7842923811E+01
          0                 2           2             5   10     2      -0.5831298708E-02       5   10    2        -0.1731932954E+00      0.5315464895E+00
          0                 3           1             5   10     2       0.3248051835E-03       5   10    2         0.1038311781E-01      0.2203284455E-01

    ------------------------------------------------
       NWT REQUIRED            3 OUTER ITERATIONS 
       AND A TOTAL OF          5 INNER ITERATIONS.
    ------------------------------------------------

 NO OUTPUT CONTROL FOR STRESS PERIOD   10   TIME STEP    1
 
 SOLVING FOR HEAD 
                                                   Max.-Head-Change                         Max.-Flux-Residual
  Residual-Control   Outer-Iter.   Inner-Iter.     Column Row Layer    Maximum-Head-Change  Column Row Layer    Maximum-Flux-Residual          L2-NORM 
          0                 1           2             4    7     2       0.7685885948E-01       4    7    2         0.2028644382E+01      0.7729291426E+01
          0                 2           2             5   10     2      -0.5536902953E-02       5   10    2        -0.1638730657E+00      0.5292482861E+00
          0                 3           1             5   10     2       0.3081891620E-03       5   10    2         0.9824343703E-02      0.2251085641E-01

    ------------------------------------------------
       NWT REQUIRED            3 OUTER ITERATIONS 
       AND A TOTAL OF          5 INNER ITERATIONS.
    ------------------------------------------------

 NO OUTPUT CONTROL FOR STRESS PERIOD   10   TIME STEP    2
 
 SOLVING FOR HEAD 
                                                   Max.-Head-Change                         Max.-Flux-Residual
  Residual-Control   Outer-Iter.   Inner-Iter.     Column Row Layer    Maximum-Head-Change  Column Row Layer    Maximum-Flux-Residual          L2-NORM 
          0                 1           2             4    7     2       0.7555780271E-01       4    7    2         0.1996630739E+01      0.7432093952E+01
          0                 2           2             5   10     2      -0.5278633834E-02       5   10    2        -0.1557241460E+00      0.5048262994E+00
          0                 3           1             5   10     2       0.2935964203E-03       5   10    2         0.9335793006E-02      0.2110920374E-01

    ------------------------------------------------
       NWT REQUIRED            3 OUTER ITERATIONS 
       AND A TOTAL OF          5 INNER ITERATIONS.
    ------------------------------------------------

 NO OUTPUT CONTROL FOR STRESS PERIOD   10   TIME STEP    3
 
 SOLVING FOR HEAD 
                                                   Max.-Head-Change                         Max.-Flux-Residual
  Residual-Control   Outer-Iter.   Inner-Iter.     Column Row Layer    Maximum-Head-Change  Column Row Layer    Maximum-Flux-Residual          L2-NORM 
          0                 1           2             4    7     2       0.7415320235E-01       4    7    2         0.1960900892E+01      0.7189297270E+01
          0                 2           2             5   10     2      -0.5051895259E-02       5   10    2        -0.1485641273E+00      0.4876601589E+00
          0                 3           1             5   10     2       0.2809752733E-03       5   10    2         0.8906528591E-02      0.2017300599E-01

    ------------------------------------------------
       NWT REQUIRED            3 OUTER ITERATIONS 
       AND A TOTAL OF          5 INNER ITERATIONS.
    ------------------------------------------------

 NO OUTPUT CONTROL FOR STRESS PERIOD   10   TIME STEP    4
 
 SOLVING FOR HEAD 
                                                   Max.-Head-Change                         Max.-Flux-Residual
  Residual-Control   Outer-Iter.   Inner-Iter.     Column Row Layer    Maximum-Head-Change  Column Row Layer    Maximum-Flux-Residual          L2-NORM 
          0                 1           2             4    7     2       0.7271335494E-01       4    7    2         0.1923705392E+01      0.7081678885E+01
          0                 2           2             5   10     2      -0.4850041656E-02       5   10    2        -0.1422363148E+00      0.4868271611E+00
          0                 3           1             5   10     2       0.2695562180E-03       5   10    2         0.8527158880E-02      0.2052203120E-01

    ------------------------------------------------
       NWT REQUIRED            3 OUTER ITERATIONS 
       AND A TOTAL OF          5 INNER ITERATIONS.
    ------------------------------------------------

 OUTPUT CONTROL FOR STRESS PERIOD   10   TIME STEP    5
    PRINT BUDGET
    SAVE BUDGET

  HEAD DEP BOUNDS   PERIOD   10   STEP     5
 BOUNDARY      1   LAYER   2   ROW    13   COL     1   RATE   -0.306145    
 BOUNDARY      2   LAYER   2   ROW    14   COL     9   RATE    0.214690    



 STREAM LISTING     PERIOD     10   STEP        5

 LAYER ROW COL. STREAM  RCH.  FLOW INTO     FLOW TO   FLOW OUT OF   OVRLND.     DIRECT     STREAM       STREAM     STREAM     STREAM   STREAMBED  STREAMBED
                SEG.NO.  NO.  STRM. RCH.    AQUIFER    STRM. RCH.    RUNOFF     PRECIP       ET          HEAD       DEPTH      WIDTH   CONDCTNC.   GRADIENT

   2    1    1     1     1    1.1093E+02  1.3454E+00   1.0958E+02  0.000E+00  0.000E+00  0.000E+00  1.09491E+03  1.867E+00  2.282E+01  1.027E+00  4.367E-01
   2    2    2     1     2    1.0958E+02  4.6195E+00   1.0496E+02  0.000E+00  0.000E+00  0.000E+00  1.08991E+03  1.848E+00  2.259E+01  1.581E+00  9.738E-01
   2    3    3     1     3    1.0496E+02  6.3935E+00   9.8569E+01  0.000E+00  0.000E+00  0.000E+00  1.08423E+03  1.812E+00  2.215E+01  1.329E+00  1.604E+00
   2    3    4     1     4    9.8569E+01  5.7570E+00   9.2812E+01  0.000E+00  0.000E+00  0.000E+00  1.07919E+03  1.784E+00  2.168E+01  1.203E+00  1.595E+00
   2    4    5     2     1    8.2812E+01  0.0000E+00   8.2812E+01  0.000E+00  0.000E+00  0.000E+00  1.07437E+03  2.439E+00  1.200E+01  7.800E-01  1.813E+00
   2    5    6     2     2    8.2812E+01  3.2225E+00   7.9589E+01  0.000E+00  0.000E+00  0.000E+00  1.06888E+03  2.371E+00  1.200E+01  6.000E-01  1.790E+00
   2    6    6     2     3    7.9589E+01  3.1866E+00   7.6402E+01  0.000E+00  0.000E+00  0.000E+00  1.06410E+03  2.311E+00  1.200E+01  6.000E-01  1.770E+00
   2    7    6     2     4    7.6402E+01  3.1506E+00   7.3252E+01  0.000E+00  0.000E+00  0.000E+00  1.05933E+03  2.251E+00  1.200E+01  6.000E-01  1.750E+00
   2    8    6     2     5    7.3252E+01  3.1143E+00   7.0138E+01  0.000E+00  0.000E+00  0.000E+00  1.05455E+03  2.191E+00  1.200E+01  6.000E-01  1.730E+00
   2    3    5     3     1    1.0000E+01  2.8252E+00   7.1748E+00  0.000E+00  0.000E+00  0.000E+00  1.07555E+03  1.909E+00  9.636E+00  7.227E-01  1.955E+00
   2    3    6     3     2    7.1748E+00  2.4905E+00   4.6843E+00  0.000E+00  0.000E+00  0.000E+00  1.07264E+03  1.727E+00  8.909E+00  6.682E-01  1.864E+00
   2    3    7     3     3    4.6843E+00  1.9718E+00   2.7125E+00  0.000E+00  0.000E+00  0.000E+00  1.06987E+03  1.555E+00  8.218E+00  5.547E-01  1.777E+00
   2    4    8     3     4    2.7125E+00  2.2567E+00   4.5579E-01  0.000E+00  0.000E+00  0.000E+00  1.06682E+03  1.364E+00  7.455E+00  6.709E-01  1.682E+00
   2    5    8     3     5    4.5579E-01  4.5579E-01   0.0000E+00  0.000E+00  0.000E+00  0.000E+00  1.06362E+03  0.000E+00  6.655E+00  4.991E-01  1.582E+00
   2    6    8     3     6    0.0000E+00  0.0000E+00   0.0000E+00  0.000E+00  0.000E+00  0.000E+00  1.06055E+03  0.000E+00  6.145E+00  1.844E-01  1.000E+00
   2    5   10     4     1    1.0000E+01  9.0525E-01   9.0947E+00  0.000E+00  0.000E+00  0.000E+00  1.07835E+03  6.210E-01  1.000E+01  2.500E-01  1.207E+00
   2    5    9     4     2    9.0947E+00  1.7835E+00   7.3113E+00  0.000E+00  0.000E+00  0.000E+00  1.07148E+03  5.670E-01  1.000E+01  5.000E-01  1.189E+00
   2    6    8     4     3    7.3113E+00  1.2257E+00   6.0855E+00  0.000E+00  0.000E+00  0.000E+00  1.06368E+03  5.021E-01  1.000E+01  3.500E-01  1.167E+00
   2    6    8     5     1    6.0855E+00  1.4716E+00   4.6139E+00  0.000E+00  0.000E+00  0.000E+00  1.05854E+03  5.396E-01  1.039E+01  4.158E-01  1.180E+00
   2    7    7     5     2    4.6139E+00  1.4897E+00   3.1242E+00  0.000E+00  0.000E+00  0.000E+00  1.05398E+03  4.817E-01  8.557E+00  4.279E-01  1.161E+00
   2    8    7     5     3    3.1242E+00  8.2855E-01   2.2957E+00  0.000E+00  0.000E+00  0.000E+00  1.04968E+03  4.253E-01  6.911E+00  2.419E-01  1.142E+00
   2    8    6     5     4    2.2957E+00  4.9455E-01   1.8011E+00  0.000E+00  0.000E+00  0.000E+00  1.04664E+03  3.856E-01  5.843E+00  1.461E-01  1.129E+00
   2    9    6     6     1    7.1939E+01  3.1134E+00   6.8825E+01  0.000E+00  0.000E+00  0.000E+00  1.04492E+03  2.189E+00  1.200E+01  6.000E-01  1.730E+00
   2   10    7     6     2    6.8825E+01  3.0762E+00   6.5749E+01  0.000E+00  0.000E+00  0.000E+00  1.04031E+03  2.127E+00  1.200E+01  6.000E-01  1.709E+00
   2   11    7     6     3    6.5749E+01  2.0843E+00   6.3665E+01  0.000E+00  0.000E+00  0.000E+00  1.03571E+03  2.074E+00  1.200E+01  6.000E-01  1.158E+00
   2   12    7     6     4    6.3665E+01  8.6862E-01   6.2796E+01  0.000E+00  0.000E+00  0.000E+00  1.03113E+03  2.044E+00  1.200E+01  6.000E-01  4.826E-01
   2   13    7     6     5    6.2796E+01 -3.6380E-01   6.3160E+01  0.000E+00  0.000E+00  0.000E+00  1.02795E+03  2.039E+00  1.200E+01  2.400E-01 -5.053E-01
   2   14    9     7     1    1.5000E+02  2.8741E+00   1.4713E+02  0.000E+00  0.000E+00  0.000E+00  1.03986E+03  2.284E+00  5.528E+01  5.591E+00  1.714E-01
   2   13    8     7     2    1.4713E+02  3.5609E+00   1.4357E+02  0.000E+00  0.000E+00  0.000E+00  1.03477E+03  2.266E+00  5.520E+01  6.141E+00  1.933E-01
   2   13    7     7     3    1.4357E+02  1.1691E+00   1.4240E+02  0.000E+00  0.000E+00  0.000E+00  1.02967E+03  2.254E+00  5.514E+01  5.576E+00  6.988E-02
   2   13    6     8     1    2.0556E+02  1.5282E-01   2.0554E+02  1.391E-01  0.000E+00  0.000E+00  1.02502E+03  3.145E+00  4.561E+01  4.648E+00  1.096E-02
   2   13    5     8     2    2.0554E+02 -2.9656E+00   2.0865E+02  1.391E-01  0.000E+00  0.000E+00  1.01878E+03  3.154E+00  4.574E+01  4.661E+00 -2.121E-01
   2   13    4     8     3    2.0865E+02 -5.4162E+00   2.1420E+02  1.391E-01  0.000E+00  0.000E+00  1.01255E+03  3.180E+00  4.610E+01  4.698E+00 -3.843E-01
   2   13    3     8     4    2.1420E+02 -6.0544E+00   2.2040E+02  1.391E-01  0.000E+00  0.000E+00  1.00634E+03  3.213E+00  4.659E+01  4.748E+00 -4.251E-01
   2   13    2     8     5    2.2040E+02 -3.9426E+00   2.2448E+02  1.391E-01  0.000E+00  0.000E+00  1.00012E+03  3.242E+00  4.701E+01  4.790E+00 -2.744E-01
   2   13    1     8     6    2.2448E+02 -2.6615E+00   2.2722E+02  8.347E-02  0.000E+00  0.000E+00  9.95136E+02  3.261E+00  4.728E+01  2.891E+00 -3.069E-01
   2    4    5     9     1    0.0000E+00  0.0000E+00   0.0000E+00  0.000E+00  0.000E+00  0.000E+00  1.06000E+03  1.872E-04  2.000E+01  2.000E-03 -2.860E-01
   2    4    5    10     1    0.0000E+00  0.0000E+00   0.0000E+00  0.000E+00  0.000E+00  0.000E+00  1.08000E+03  0.000E+00  2.000E+01  2.000E-03  1.000E+00





     0  LAKE CELLS ARE DRY.

 PERIOD    10     TIME STEP     5     TIME STEP LENGTH  1.7520E+05
 PERIOD TIME  8.7600E+05     TOTAL SIMULATION TIME  2.4528E+07


                 HYDROLOGIC BUDGET SUMMARIES FOR SIMULATED LAKES
     (ALL FLUID FLUXES ARE VOLUMES ADDED TO THE LAKE DURING PRESENT TIME STEP)
     ----------------------------------------------------------------------------------------
 LAKE    STAGE         VOLUME     VOL. CHANGE      PRECIP     EVAPORATION    SPECIFIED RUNOFF     COMPUTED RUNOFF    TOTAL RUNOFF
   1  1.074507E+03  1.207583E+03 -4.775879E+00  0.000000E+00  1.333281E+02   0.000000E+00          0.000000E+00      0.000000E+00

            GROUND WATER            SURFACE WATER        WATER          UZF INFIL.
 LAKE    INFLOW     OUTFLOW      INFLOW     OUTFLOW       USE        FROM LAKE
   1  0.0000E+00  0.0000E+00  0.0000E+00  0.0000E+00  0.0000E+00       1.7215E+02

      CONNECTED LAKE   TIME-STEP         STAGE-CHANGE          PERCENT
 LAKE    INFLUX      SURFACE AREA   TIME STEP  CUMULATIVE    DISCREPANCY
   1   0.0000E+00     1.9025E+04   1.2931E-05  7.2151E-03     -98.437
 --------------------------------------------------------------------------------



            CUMULATIVE HYDROLOGIC BUDGET SUMMARIES FOR SIMULATED LAKES
     (ALL FLUID FLUXES ARE SUMS OF VOLUMES ADDED TO THE LAKE SINCE INITIAL TIME)
     ---------------------------------------------------------------------------
 LAKE       PRECIP       EVAP     SPECIFIED RUNOFF   COMPUTED RUNOFF   TOTAL RUNOFF
   1     0.0000E+00  1.6108E+06       0.0000E+00       0.0000E+00       0.0000E+00

            GROUND WATER            SURFACE WATER       UZF INFIL.
 LAKE    INFLOW     OUTFLOW      INFLOW     OUTFLOW     FROM LAKE
   1  0.0000E+00  0.0000E+00  1.9325E+08  4.8782E+07    1.4291E+08

         WATER    CONNECTED LAKE   CHANGE       PERCENT
 LAKE     USE         INFLUX       IN VOL.    DISCREPANCY
   1   0.0000E+00   0.0000E+00   1.2076E+03     -0.029
 --------------------------------------------------------------------------------

 UBDSV3 SAVING "           GW ET" ON UNIT  61 AT TIME STEP     5, STRESS PERIOD  10
 UBDSV3 SAVING "    UZF RECHARGE" ON UNIT  61 AT TIME STEP     5, STRESS PERIOD  10
 UBDSV3 SAVING " SURFACE LEAKAGE" ON UNIT  61 AT TIME STEP     5, STRESS PERIOD  10
 UBDSV3 SAVING "       HORT+DUNN" ON UNIT  61 AT TIME STEP     5, STRESS PERIOD  10
 UBDSV3 SAVING "  STORAGE CHANGE" ON UNIT  61 AT TIME STEP     5, STRESS PERIOD  10


UNSATURATED ZONE PACKAGE VOLUMETRIC BUDGET FOR  TIME STEP     5 STRESS PERIOD   10
  ------------------------------------------------------------------------------



     CUMULATIVE VOLUMES      L**3       RATES FOR THIS TIME STEP      L**3/T
     ------------------                 ------------------------

           IN:                                      IN:
           ---                                      ---
        INFILTRATION =  1578137233.2532          INFILTRATION =          16.8689

          OUT:                                     OUT:
          ----                                     ----
              UZF ET =  1464309060.1064                UZF ET =          26.6019
        UZF RECHARGE =   706905245.5736          UZF RECHARGE =           7.3338

            IN - OUT =  -593077072.4268              IN - OUT =         -17.0667

          STORAGE:                                 STORAGE:
          --------                                 --------
      STORAGE CHANGE =  -593089873.1439        STORAGE CHANGE =         -17.0642

 PERCENT DISCREPANCY IS DIFFERENCE BETWEEN IN-OUT MINUS CHANGE IN STORAGE
 DIVIDED BY THE AVERAGE OF IN AND OUT TIMES 100

 PERCENT DISCREPANCY =           0.00     PERCENT DISCREPANCY =          -0.01






1
  VOLUMETRIC BUDGET FOR ENTIRE MODEL AT END OF TIME STEP    5, STRESS PERIOD  10
  ------------------------------------------------------------------------------

     CUMULATIVE VOLUMES      L**3       RATES FOR THIS TIME STEP      L**3/T
     ------------------                 ------------------------

           IN:                                      IN:
           ---                                      ---
             STORAGE =   185939824.0000               STORAGE =           7.9793
       CONSTANT HEAD =           0.0000         CONSTANT HEAD =           0.0000
               WELLS =           0.0000                 WELLS =           0.0000
     HEAD DEP BOUNDS =     5261287.5000       HEAD DEP BOUNDS =           0.2147
      STREAM LEAKAGE =  1880596480.0000        STREAM LEAKAGE =          65.8876
       LAKE  SEEPAGE =           0.0000         LAKE  SEEPAGE =           0.0000
        UZF RECHARGE =   706905088.0000          UZF RECHARGE =           7.3338
               GW ET =           0.0000                 GW ET =           0.0000
     SURFACE LEAKAGE =           0.0000       SURFACE LEAKAGE =           0.0000

            TOTAL IN =  2778702848.0000              TOTAL IN =          81.4154

          OUT:                                     OUT:
          ----                                     ----
             STORAGE =  1647109120.0000               STORAGE =          44.6032
       CONSTANT HEAD =           0.0000         CONSTANT HEAD =           0.0000
               WELLS =   315360000.0000                 WELLS =           0.0000
     HEAD DEP BOUNDS =     7481731.0000       HEAD DEP BOUNDS =           0.3061
      STREAM LEAKAGE =   437757664.0000        STREAM LEAKAGE =          21.4040
       LAKE  SEEPAGE =           0.0000         LAKE  SEEPAGE =           0.0000
        UZF RECHARGE =           0.0000          UZF RECHARGE =           0.0000
               GW ET =   358559648.0000                 GW ET =          18.5954
     SURFACE LEAKAGE =    87975448.0000       SURFACE LEAKAGE =           0.7468

           TOTAL OUT =  2854243584.0000             TOTAL OUT =          85.6556

            IN - OUT =   -75540736.0000              IN - OUT =          -4.2402

 PERCENT DISCREPANCY =          -2.68     PERCENT DISCREPANCY =          -5.08






         TIME SUMMARY AT END OF TIME STEP    5 IN STRESS PERIOD   10
                    SECONDS     MINUTES      HOURS       DAYS        YEARS
                    -----------------------------------------------------------
   TIME STEP LENGTH 1.75200E+05  2920.0      48.667      2.0278     5.55175E-03
 STRESS PERIOD TIME 8.76000E+05  14600.      243.33      10.139     2.77588E-02
         TOTAL TIME 2.45280E+07 4.08800E+05  6813.3      283.89     0.77725    
1
 
 SOLVING FOR HEAD 
                                                   Max.-Head-Change                         Max.-Flux-Residual
  Residual-Control   Outer-Iter.   Inner-Iter.     Column Row Layer    Maximum-Head-Change  Column Row Layer    Maximum-Flux-Residual          L2-NORM 
          0                 1           2             4    3     2      -0.7356139334E-01       4    3    2        -0.2032598665E+01      0.7660137379E+01
          0                 2           2             4    3     2       0.6949400922E-02       4    3    2         0.1989953940E+00      0.5673737508E+00
          0                 3           1             4    3     2      -0.3886799797E-03       4    3    2        -0.1153246941E-01      0.2664125455E-01

    ------------------------------------------------
       NWT REQUIRED            3 OUTER ITERATIONS 
       AND A TOTAL OF          5 INNER ITERATIONS.
    ------------------------------------------------

 NO OUTPUT CONTROL FOR STRESS PERIOD   10   TIME STEP    6
 
 SOLVING FOR HEAD 
                                                   Max.-Head-Change                         Max.-Flux-Residual
  Residual-Control   Outer-Iter.   Inner-Iter.     Column Row Layer    Maximum-Head-Change  Column Row Layer    Maximum-Flux-Residual          L2-NORM 
          0                 1           2             4    7     2       0.6995617660E-01       4    3    2        -0.1918256114E+01      0.7307148811E+01
          0                 2           2             4    3     2       0.6570880851E-02       4    3    2         0.1879297376E+00      0.5383938343E+00
          0                 3           1             4    3     2      -0.3678102034E-03       4    3    2        -0.1090385808E-01      0.2508305602E-01

    ------------------------------------------------
       NWT REQUIRED            3 OUTER ITERATIONS 
       AND A TOTAL OF          5 INNER ITERATIONS.
    ------------------------------------------------

 NO OUTPUT CONTROL FOR STRESS PERIOD   10   TIME STEP    7
 
 SOLVING FOR HEAD 
                                                   Max.-Head-Change                         Max.-Flux-Residual
  Residual-Control   Outer-Iter.   Inner-Iter.     Column Row Layer    Maximum-Head-Change  Column Row Layer    Maximum-Flux-Residual          L2-NORM 
          0                 1           2             4    7     2       0.6857018365E-01       4    7    2         0.1817188158E+01      0.7008917387E+01
          0                 2           2             4    3     2       0.6212871138E-02       4    3    2         0.1775005119E+00      0.5127372253E+00
          0                 3           1             4    3     2      -0.3480815437E-03       4    3    2        -0.1031098475E-01      0.2365988672E-01

    ------------------------------------------------
       NWT REQUIRED            3 OUTER ITERATIONS 
       AND A TOTAL OF          5 INNER ITERATIONS.
    ------------------------------------------------

 NO OUTPUT CONTROL FOR STRESS PERIOD   10   TIME STEP    8
 
 SOLVING FOR HEAD 
                                                   Max.-Head-Change                         Max.-Flux-Residual
  Residual-Control   Outer-Iter.   Inner-Iter.     Column Row Layer    Maximum-Head-Change  Column Row Layer    Maximum-Flux-Residual          L2-NORM 
          0                 1           2             4    3     2      -0.8073586441E-01       4    3    2        -0.2218302500E+01      0.7268980782E+01
          0                 2           2             4    3     2       0.7630190393E-02       4    3    2         0.2175078587E+00      0.5544949167E+00
          0                 3           1             4    3     2      -0.4274269403E-03       4    3    2        -0.1264017970E-01      0.2683023092E-01

    ------------------------------------------------
       NWT REQUIRED            3 OUTER ITERATIONS 
       AND A TOTAL OF          5 INNER ITERATIONS.
    ------------------------------------------------

 NO OUTPUT CONTROL FOR STRESS PERIOD   10   TIME STEP    9
 
 SOLVING FOR HEAD 
                                                   Max.-Head-Change                         Max.-Flux-Residual
  Residual-Control   Outer-Iter.   Inner-Iter.     Column Row Layer    Maximum-Head-Change  Column Row Layer    Maximum-Flux-Residual          L2-NORM 
          0                 1           2             4    3     2      -0.8354448007E-01       4    3    2        -0.2291503546E+01      0.7183803816E+01
          0                 2           2             4    3     2       0.7921814191E-02       4    3    2         0.2255425783E+00      0.5541338045E+00
          0                 3           1             4    3     2      -0.4463378631E-03       4    3    2        -0.1319106062E-01      0.2716371814E-01

    ------------------------------------------------
       NWT REQUIRED            3 OUTER ITERATIONS 
       AND A TOTAL OF          5 INNER ITERATIONS.
    ------------------------------------------------

 OUTPUT CONTROL FOR STRESS PERIOD   10   TIME STEP   10
    PRINT BUDGET
    SAVE BUDGET

  HEAD DEP BOUNDS   PERIOD   10   STEP    10
 BOUNDARY      1   LAYER   2   ROW    13   COL     1   RATE   -0.301434    
 BOUNDARY      2   LAYER   2   ROW    14   COL     9   RATE    0.214789    



 STREAM LISTING     PERIOD     10   STEP       10

 LAYER ROW COL. STREAM  RCH.  FLOW INTO     FLOW TO   FLOW OUT OF   OVRLND.     DIRECT     STREAM       STREAM     STREAM     STREAM   STREAMBED  STREAMBED
                SEG.NO.  NO.  STRM. RCH.    AQUIFER    STRM. RCH.    RUNOFF     PRECIP       ET          HEAD       DEPTH      WIDTH   CONDCTNC.   GRADIENT

   2    1    1     1     1    6.1000E+01  9.4330E-01   6.0057E+01  0.000E+00  0.000E+00  0.000E+00  1.09458E+03  1.534E+00  1.835E+01  8.259E-01  3.807E-01
   2    2    2     1     2    6.0057E+01  3.5664E+00   5.6490E+01  0.000E+00  0.000E+00  0.000E+00  1.08957E+03  1.507E+00  1.808E+01  1.265E+00  9.395E-01
   2    3    3     1     3    5.6490E+01  4.6909E+00   5.1799E+01  0.000E+00  0.000E+00  0.000E+00  1.08387E+03  1.454E+00  1.755E+01  1.053E+00  1.485E+00
   2    3    4     1     4    5.1799E+01  4.1413E+00   4.7658E+01  0.000E+00  0.000E+00  0.000E+00  1.07881E+03  1.398E+00  1.696E+01  9.416E-01  1.466E+00
   2    4    5     2     1    3.7658E+01  0.0000E+00   3.7658E+01  0.000E+00  0.000E+00  0.000E+00  1.07343E+03  1.500E+00  1.200E+01  7.800E-01  1.500E+00
   2    5    6     2     2    3.7658E+01  2.6531E+00   3.5005E+01  0.000E+00  0.000E+00  0.000E+00  1.06793E+03  1.422E+00  1.200E+01  6.000E-01  1.474E+00
   2    6    6     2     3    3.5005E+01  2.6114E+00   3.2394E+01  0.000E+00  0.000E+00  0.000E+00  1.06314E+03  1.352E+00  1.200E+01  6.000E-01  1.451E+00
   2    7    6     2     4    3.2394E+01  2.5688E+00   2.9825E+01  0.000E+00  0.000E+00  0.000E+00  1.05836E+03  1.281E+00  1.200E+01  6.000E-01  1.427E+00
   2    8    6     2     5    2.9825E+01  2.5254E+00   2.7299E+01  0.000E+00  0.000E+00  0.000E+00  1.05357E+03  1.209E+00  1.200E+01  6.000E-01  1.403E+00
   2    3    5     3     1    1.0000E+01  2.8252E+00   7.1748E+00  0.000E+00  0.000E+00  0.000E+00  1.07555E+03  1.909E+00  9.636E+00  7.227E-01  1.955E+00
   2    3    6     3     2    7.1748E+00  2.4905E+00   4.6843E+00  0.000E+00  0.000E+00  0.000E+00  1.07264E+03  1.727E+00  8.909E+00  6.682E-01  1.864E+00
   2    3    7     3     3    4.6843E+00  1.9718E+00   2.7125E+00  0.000E+00  0.000E+00  0.000E+00  1.06987E+03  1.555E+00  8.218E+00  5.547E-01  1.777E+00
   2    4    8     3     4    2.7125E+00  2.2567E+00   4.5579E-01  0.000E+00  0.000E+00  0.000E+00  1.06682E+03  1.364E+00  7.455E+00  6.709E-01  1.682E+00
   2    5    8     3     5    4.5579E-01  4.5579E-01   0.0000E+00  0.000E+00  0.000E+00  0.000E+00  1.06362E+03  0.000E+00  6.655E+00  4.991E-01  1.582E+00
   2    6    8     3     6    0.0000E+00  0.0000E+00   0.0000E+00  0.000E+00  0.000E+00  0.000E+00  1.06055E+03  0.000E+00  6.145E+00  1.844E-01  1.000E+00
   2    5   10     4     1    1.0000E+01  9.0525E-01   9.0947E+00  0.000E+00  0.000E+00  0.000E+00  1.07835E+03  6.210E-01  1.000E+01  2.500E-01  1.207E+00
   2    5    9     4     2    9.0947E+00  1.7835E+00   7.3113E+00  0.000E+00  0.000E+00  0.000E+00  1.07148E+03  5.670E-01  1.000E+01  5.000E-01  1.189E+00
   2    6    8     4     3    7.3113E+00  1.2257E+00   6.0855E+00  0.000E+00  0.000E+00  0.000E+00  1.06368E+03  5.021E-01  1.000E+01  3.500E-01  1.167E+00
   2    6    8     5     1    6.0855E+00  1.4716E+00   4.6139E+00  0.000E+00  0.000E+00  0.000E+00  1.05854E+03  5.396E-01  1.039E+01  4.158E-01  1.180E+00
   2    7    7     5     2    4.6139E+00  1.4897E+00   3.1242E+00  0.000E+00  0.000E+00  0.000E+00  1.05398E+03  4.817E-01  8.557E+00  4.279E-01  1.161E+00
   2    8    7     5     3    3.1242E+00  8.2855E-01   2.2957E+00  0.000E+00  0.000E+00  0.000E+00  1.04968E+03  4.253E-01  6.911E+00  2.419E-01  1.142E+00
   2    8    6     5     4    2.2957E+00  4.9455E-01   1.8011E+00  0.000E+00  0.000E+00  0.000E+00  1.04664E+03  3.856E-01  5.843E+00  1.461E-01  1.129E+00
   2    9    6     6     1    2.9100E+01  2.5208E+00   2.6580E+01  0.000E+00  0.000E+00  0.000E+00  1.04393E+03  1.201E+00  1.200E+01  6.000E-01  1.400E+00
   2   10    7     6     2    2.6580E+01  2.4754E+00   2.4104E+01  0.000E+00  0.000E+00  0.000E+00  1.03931E+03  1.126E+00  1.200E+01  6.000E-01  1.375E+00
   2   11    7     6     3    2.4104E+01  1.5328E+00   2.2571E+01  0.000E+00  0.000E+00  0.000E+00  1.03470E+03  1.063E+00  1.200E+01  6.000E-01  8.516E-01
   2   12    7     6     4    2.2571E+01  3.3734E-01   2.2234E+01  0.000E+00  0.000E+00  0.000E+00  1.03012E+03  1.032E+00  1.200E+01  6.000E-01  1.874E-01
   2   13    7     6     5    2.2234E+01 -5.9241E-01   2.2826E+01  0.000E+00  0.000E+00  0.000E+00  1.02695E+03  1.036E+00  1.200E+01  2.400E-01 -8.228E-01
   2   14    9     7     1    1.5000E+02  2.8884E+00   1.4711E+02  0.000E+00  0.000E+00  0.000E+00  1.03986E+03  2.284E+00  5.528E+01  5.591E+00  1.722E-01
   2   13    8     7     2    1.4711E+02  3.5965E+00   1.4352E+02  0.000E+00  0.000E+00  0.000E+00  1.03477E+03  2.266E+00  5.520E+01  6.141E+00  1.952E-01
   2   13    7     7     3    1.4352E+02  1.4401E+00   1.4208E+02  0.000E+00  0.000E+00  0.000E+00  1.02967E+03  2.253E+00  5.514E+01  5.576E+00  8.609E-02
   2   13    6     8     1    1.6490E+02 -3.0404E-01   1.6527E+02  6.156E-02  0.000E+00  0.000E+00  1.02477E+03  2.896E+00  4.200E+01  4.280E+00 -2.368E-02
   2   13    5     8     2    1.6527E+02 -3.2996E+00   1.6863E+02  6.156E-02  0.000E+00  0.000E+00  1.01853E+03  2.909E+00  4.218E+01  4.298E+00 -2.559E-01
   2   13    4     8     3    1.6863E+02 -5.8017E+00   1.7449E+02  6.156E-02  0.000E+00  0.000E+00  1.01231E+03  2.939E+00  4.262E+01  4.343E+00 -4.453E-01
   2   13    3     8     4    1.7449E+02 -6.3597E+00   1.8091E+02  6.156E-02  0.000E+00  0.000E+00  1.00610E+03  2.979E+00  4.320E+01  4.402E+00 -4.815E-01
   2   13    2     8     5    1.8091E+02 -4.1120E+00   1.8509E+02  6.156E-02  0.000E+00  0.000E+00  9.99888E+02  3.013E+00  4.369E+01  4.452E+00 -3.079E-01
   2   13    1     8     6    1.8509E+02 -2.7516E+00   1.8787E+02  3.694E-02  0.000E+00  0.000E+00  9.94910E+02  3.035E+00  4.400E+01  2.690E+00 -3.409E-01
   2    4    5     9     1    0.0000E+00  0.0000E+00   0.0000E+00  0.000E+00  0.000E+00  0.000E+00  1.06000E+03  1.773E-04  2.000E+01  2.000E-03 -2.614E-01
   2    4    5    10     1    0.0000E+00  0.0000E+00   0.0000E+00  0.000E+00  0.000E+00  0.000E+00  1.08000E+03  0.000E+00  2.000E+01  2.000E-03  1.000E+00





     0  LAKE CELLS ARE DRY.

 PERIOD    10     TIME STEP    10     TIME STEP LENGTH  1.7520E+05
 PERIOD TIME  1.7520E+06     TOTAL SIMULATION TIME  2.5404E+07


                 HYDROLOGIC BUDGET SUMMARIES FOR SIMULATED LAKES
     (ALL FLUID FLUXES ARE VOLUMES ADDED TO THE LAKE DURING PRESENT TIME STEP)
     ----------------------------------------------------------------------------------------
 LAKE    STAGE         VOLUME     VOL. CHANGE      PRECIP     EVAPORATION    SPECIFIED RUNOFF     COMPUTED RUNOFF    TOTAL RUNOFF
   1  1.074507E+03  1.158321E+03 -1.185779E+01  0.000000E+00  1.278891E+02   0.000000E+00          0.000000E+00      0.000000E+00

            GROUND WATER            SURFACE WATER        WATER          UZF INFIL.
 LAKE    INFLOW     OUTFLOW      INFLOW     OUTFLOW       USE        FROM LAKE
   1  0.0000E+00  0.0000E+00  0.0000E+00  0.0000E+00  0.0000E+00       1.5879E+02

      CONNECTED LAKE   TIME-STEP         STAGE-CHANGE          PERCENT
 LAKE    INFLUX      SURFACE AREA   TIME STEP  CUMULATIVE    DISCREPANCY
   1   0.0000E+00     1.8249E+04  -3.7260E-05  6.9207E-03     -95.864
 --------------------------------------------------------------------------------



            CUMULATIVE HYDROLOGIC BUDGET SUMMARIES FOR SIMULATED LAKES
     (ALL FLUID FLUXES ARE SUMS OF VOLUMES ADDED TO THE LAKE SINCE INITIAL TIME)
     ---------------------------------------------------------------------------
 LAKE       PRECIP       EVAP     SPECIFIED RUNOFF   COMPUTED RUNOFF   TOTAL RUNOFF
   1     0.0000E+00  1.6114E+06       0.0000E+00       0.0000E+00       0.0000E+00

            GROUND WATER            SURFACE WATER       UZF INFIL.
 LAKE    INFLOW     OUTFLOW      INFLOW     OUTFLOW     FROM LAKE
   1  0.0000E+00  0.0000E+00  1.9325E+08  4.8782E+07    1.4291E+08

         WATER    CONNECTED LAKE   CHANGE       PERCENT
 LAKE     USE         INFLUX       IN VOL.    DISCREPANCY
   1   0.0000E+00   0.0000E+00   1.1583E+03     -0.030
 --------------------------------------------------------------------------------

 UBDSV3 SAVING "           GW ET" ON UNIT  61 AT TIME STEP    10, STRESS PERIOD  10
 UBDSV3 SAVING "    UZF RECHARGE" ON UNIT  61 AT TIME STEP    10, STRESS PERIOD  10
 UBDSV3 SAVING " SURFACE LEAKAGE" ON UNIT  61 AT TIME STEP    10, STRESS PERIOD  10
 UBDSV3 SAVING "       HORT+DUNN" ON UNIT  61 AT TIME STEP    10, STRESS PERIOD  10
 UBDSV3 SAVING "  STORAGE CHANGE" ON UNIT  61 AT TIME STEP    10, STRESS PERIOD  10


UNSATURATED ZONE PACKAGE VOLUMETRIC BUDGET FOR  TIME STEP    10 STRESS PERIOD   10
  ------------------------------------------------------------------------------



     CUMULATIVE VOLUMES      L**3       RATES FOR THIS TIME STEP      L**3/T
     ------------------                 ------------------------

           IN:                                      IN:
           ---                                      ---
        INFILTRATION =  1592921142.8890          INFILTRATION =          16.8810

          OUT:                                     OUT:
          ----                                     ----
              UZF ET =  1486687638.4802                UZF ET =          24.8541
        UZF RECHARGE =   712776405.6132          UZF RECHARGE =           6.4317

            IN - OUT =  -606542901.2043              IN - OUT =         -14.4048

          STORAGE:                                 STORAGE:
          --------                                 --------
      STORAGE CHANGE =  -606553664.2754        STORAGE CHANGE =         -14.4028

 PERCENT DISCREPANCY IS DIFFERENCE BETWEEN IN-OUT MINUS CHANGE IN STORAGE
 DIVIDED BY THE AVERAGE OF IN AND OUT TIMES 100

 PERCENT DISCREPANCY =           0.00     PERCENT DISCREPANCY =          -0.01






1
  VOLUMETRIC BUDGET FOR ENTIRE MODEL AT END OF TIME STEP   10, STRESS PERIOD  10
  ------------------------------------------------------------------------------

     CUMULATIVE VOLUMES      L**3       RATES FOR THIS TIME STEP      L**3/T
     ------------------                 ------------------------

           IN:                                      IN:
           ---                                      ---
             STORAGE =   197108192.0000               STORAGE =          13.4254
       CONSTANT HEAD =           0.0000         CONSTANT HEAD =           0.0000
               WELLS =           0.0000                 WELLS =           0.0000
     HEAD DEP BOUNDS =     5449412.5000       HEAD DEP BOUNDS =           0.2148
      STREAM LEAKAGE =  1932393728.0000        STREAM LEAKAGE =          56.6909
       LAKE  SEEPAGE =           0.0000         LAKE  SEEPAGE =           0.0000
        UZF RECHARGE =   712776256.0000          UZF RECHARGE =           6.4317
               GW ET =           0.0000                 GW ET =           0.0000
     SURFACE LEAKAGE =           0.0000       SURFACE LEAKAGE =           0.0000

            TOTAL IN =  2847727616.0000              TOTAL IN =          76.7628

          OUT:                                     OUT:
          ----                                     ----
             STORAGE =  1682048896.0000               STORAGE =          37.7074
       CONSTANT HEAD =           0.0000         CONSTANT HEAD =           0.0000
               WELLS =   315360000.0000                 WELLS =           0.0000
     HEAD DEP BOUNDS =     7747373.0000       HEAD DEP BOUNDS =           0.3014
      STREAM LEAKAGE =   458009504.0000        STREAM LEAKAGE =          23.2210
       LAKE  SEEPAGE =           0.0000         LAKE  SEEPAGE =           0.0000
        UZF RECHARGE =           0.0000          UZF RECHARGE =           0.0000
               GW ET =   374960864.0000                 GW ET =          18.7158
     SURFACE LEAKAGE =    88378336.0000       SURFACE LEAKAGE =           0.3246

           TOTAL OUT =  2926504960.0000             TOTAL OUT =          80.2703

            IN - OUT =   -78777344.0000              IN - OUT =          -3.5076

 PERCENT DISCREPANCY =          -2.73     PERCENT DISCREPANCY =          -4.47






         TIME SUMMARY AT END OF TIME STEP   10 IN STRESS PERIOD   10
                    SECONDS     MINUTES      HOURS       DAYS        YEARS
                    -----------------------------------------------------------
   TIME STEP LENGTH 1.75200E+05  2920.0      48.667      2.0278     5.55175E-03
 STRESS PERIOD TIME 1.75200E+06  29200.      486.67      20.278     5.55175E-02
         TOTAL TIME 2.54040E+07 4.23400E+05  7056.7      294.03     0.80500    
1
 
 SOLVING FOR HEAD 
                                                   Max.-Head-Change                         Max.-Flux-Residual
  Residual-Control   Outer-Iter.   Inner-Iter.     Column Row Layer    Maximum-Head-Change  Column Row Layer    Maximum-Flux-Residual          L2-NORM 
          0                 1           2             4    3     2      -0.7939997096E-01       4    3    2        -0.2174921365E+01      0.6893281021E+01
          0                 2           2             4    3     2       0.7530396115E-02       4    3    2         0.2141663257E+00      0.5286812339E+00
          0                 3           1             4    3     2      -0.4244803450E-03       4    3    2        -0.1253517587E-01      0.2572818487E-01

    ------------------------------------------------
       NWT REQUIRED            3 OUTER ITERATIONS 
       AND A TOTAL OF          5 INNER ITERATIONS.
    ------------------------------------------------

 NO OUTPUT CONTROL FOR STRESS PERIOD   10   TIME STEP   11
 
 SOLVING FOR HEAD 
                                                   Max.-Head-Change                         Max.-Flux-Residual
  Residual-Control   Outer-Iter.   Inner-Iter.     Column Row Layer    Maximum-Head-Change  Column Row Layer    Maximum-Flux-Residual          L2-NORM 
          0                 1           2             4    3     2      -0.7554876096E-01       4    3    2        -0.2066988344E+01      0.6640756102E+01
          0                 2           2             4    3     2       0.7166770886E-02       4    3    2         0.2036305048E+00      0.5066037789E+00
          0                 3           1             4    3     2      -0.4041784164E-03       4    3    2        -0.1192739127E-01      0.2447130699E-01

    ------------------------------------------------
       NWT REQUIRED            3 OUTER ITERATIONS 
       AND A TOTAL OF          5 INNER ITERATIONS.
    ------------------------------------------------

 NO OUTPUT CONTROL FOR STRESS PERIOD   10   TIME STEP   12
 
 SOLVING FOR HEAD 
                                                   Max.-Head-Change                         Max.-Flux-Residual
  Residual-Control   Outer-Iter.   Inner-Iter.     Column Row Layer    Maximum-Head-Change  Column Row Layer    Maximum-Flux-Residual          L2-NORM 
          0                 1           2             3    3     2      -0.8756421439E-01       3    3    2        -0.2392088824E+01      0.6891820961E+01
          0                 2           2             3    3     2       0.8308456878E-02       3    3    2         0.2350905039E+00      0.5443908523E+00
          0                 3           1             3    3     2      -0.4679588466E-03       3    3    2        -0.1371233867E-01      0.2729834083E-01

    ------------------------------------------------
       NWT REQUIRED            3 OUTER ITERATIONS 
       AND A TOTAL OF          5 INNER ITERATIONS.
    ------------------------------------------------

 NO OUTPUT CONTROL FOR STRESS PERIOD   10   TIME STEP   13
 
 SOLVING FOR HEAD 
                                                   Max.-Head-Change                         Max.-Flux-Residual
  Residual-Control   Outer-Iter.   Inner-Iter.     Column Row Layer    Maximum-Head-Change  Column Row Layer    Maximum-Flux-Residual          L2-NORM 
          0                 1           2             3    3     2      -0.8948821245E-01       3    3    2        -0.2441705487E+01      0.6811113266E+01
          0                 2           2             3    3     2       0.8488407027E-02       3    3    2         0.2400085526E+00      0.5418601019E+00
          0                 3           1             3    3     2      -0.4780037602E-03       3    3    2        -0.1400348235E-01      0.2736625211E-01

    ------------------------------------------------
       NWT REQUIRED            3 OUTER ITERATIONS 
       AND A TOTAL OF          5 INNER ITERATIONS.
    ------------------------------------------------

 NO OUTPUT CONTROL FOR STRESS PERIOD   10   TIME STEP   14
 
 SOLVING FOR HEAD 
                                                   Max.-Head-Change                         Max.-Flux-Residual
  Residual-Control   Outer-Iter.   Inner-Iter.     Column Row Layer    Maximum-Head-Change  Column Row Layer    Maximum-Flux-Residual          L2-NORM 
          0                 1           2             3    3     2      -0.8546982120E-01       3    3    2        -0.2329739211E+01      0.6555983360E+01
          0                 2           2             3    3     2       0.8107703354E-02       3    3    2         0.2291001751E+00      0.5187502914E+00
          0                 3           1             3    3     2      -0.4567305335E-03       3    3    2        -0.1337681583E-01      0.2605425665E-01

    ------------------------------------------------
       NWT REQUIRED            3 OUTER ITERATIONS 
       AND A TOTAL OF          5 INNER ITERATIONS.
    ------------------------------------------------

 OUTPUT CONTROL FOR STRESS PERIOD   10   TIME STEP   15
    PRINT BUDGET
    PRINT HEAD FOR ALL LAYERS
    SAVE HEAD FOR ALL LAYERS
    SAVE BUDGET

  HEAD DEP BOUNDS   PERIOD   10   STEP    15
 BOUNDARY      1   LAYER   2   ROW    13   COL     1   RATE   -0.297676    
 BOUNDARY      2   LAYER   2   ROW    14   COL     9   RATE    0.214832    



 STREAM LISTING     PERIOD     10   STEP       15

 LAYER ROW COL. STREAM  RCH.  FLOW INTO     FLOW TO   FLOW OUT OF   OVRLND.     DIRECT     STREAM       STREAM     STREAM     STREAM   STREAMBED  STREAMBED
                SEG.NO.  NO.  STRM. RCH.    AQUIFER    STRM. RCH.    RUNOFF     PRECIP       ET          HEAD       DEPTH      WIDTH   CONDCTNC.   GRADIENT

   2    1    1     1     1    4.6000E+01  8.5099E-01   4.5149E+01  0.000E+00  0.000E+00  0.000E+00  1.09442E+03  1.372E+00  1.641E+01  7.385E-01  3.841E-01
   2    2    2     1     2    4.5149E+01  3.2919E+00   4.1857E+01  0.000E+00  0.000E+00  0.000E+00  1.08942E+03  1.357E+00  1.612E+01  1.129E+00  9.722E-01
   2    3    3     1     3    4.1857E+01  4.0520E+00   3.7805E+01  0.000E+00  0.000E+00  0.000E+00  1.08375E+03  1.331E+00  1.559E+01  9.356E-01  1.444E+00
   2    3    4     1     4    3.7805E+01  3.5828E+00   3.4222E+01  0.000E+00  0.000E+00  0.000E+00  1.07871E+03  1.302E+00  1.501E+01  8.329E-01  1.434E+00
   2    4    5     2     1    2.4222E+01  0.0000E+00   2.4222E+01  0.000E+00  0.000E+00  0.000E+00  1.07307E+03  1.137E+00  1.200E+01  7.800E-01  1.379E+00
   2    5    6     2     2    2.4222E+01  2.4296E+00   2.1793E+01  0.000E+00  0.000E+00  0.000E+00  1.06756E+03  1.049E+00  1.200E+01  6.000E-01  1.350E+00
   2    6    6     2     3    2.1793E+01  2.3824E+00   1.9410E+01  0.000E+00  0.000E+00  0.000E+00  1.06276E+03  9.707E-01  1.200E+01  6.000E-01  1.324E+00
   2    7    6     2     4    1.9410E+01  2.3336E+00   1.7077E+01  0.000E+00  0.000E+00  0.000E+00  1.05796E+03  8.894E-01  1.200E+01  6.000E-01  1.296E+00
   2    8    6     2     5    1.7077E+01  2.2828E+00   1.4794E+01  0.000E+00  0.000E+00  0.000E+00  1.05316E+03  8.047E-01  1.200E+01  6.000E-01  1.268E+00
   2    3    5     3     1    1.0000E+01  2.8252E+00   7.1748E+00  0.000E+00  0.000E+00  0.000E+00  1.07555E+03  1.909E+00  9.636E+00  7.227E-01  1.955E+00
   2    3    6     3     2    7.1748E+00  2.4905E+00   4.6843E+00  0.000E+00  0.000E+00  0.000E+00  1.07264E+03  1.727E+00  8.909E+00  6.682E-01  1.864E+00
   2    3    7     3     3    4.6843E+00  1.9718E+00   2.7125E+00  0.000E+00  0.000E+00  0.000E+00  1.06987E+03  1.555E+00  8.218E+00  5.547E-01  1.777E+00
   2    4    8     3     4    2.7125E+00  2.2567E+00   4.5579E-01  0.000E+00  0.000E+00  0.000E+00  1.06682E+03  1.364E+00  7.455E+00  6.709E-01  1.682E+00
   2    5    8     3     5    4.5579E-01  4.5579E-01   0.0000E+00  0.000E+00  0.000E+00  0.000E+00  1.06362E+03  0.000E+00  6.655E+00  4.991E-01  1.582E+00
   2    6    8     3     6    0.0000E+00  0.0000E+00   0.0000E+00  0.000E+00  0.000E+00  0.000E+00  1.06055E+03  0.000E+00  6.145E+00  1.844E-01  1.000E+00
   2    5   10     4     1    1.0000E+01  9.0525E-01   9.0947E+00  0.000E+00  0.000E+00  0.000E+00  1.07835E+03  6.210E-01  1.000E+01  2.500E-01  1.207E+00
   2    5    9     4     2    9.0947E+00  1.7835E+00   7.3113E+00  0.000E+00  0.000E+00  0.000E+00  1.07148E+03  5.670E-01  1.000E+01  5.000E-01  1.189E+00
   2    6    8     4     3    7.3113E+00  1.2257E+00   6.0855E+00  0.000E+00  0.000E+00  0.000E+00  1.06368E+03  5.021E-01  1.000E+01  3.500E-01  1.167E+00
   2    6    8     5     1    6.0855E+00  1.4716E+00   4.6139E+00  0.000E+00  0.000E+00  0.000E+00  1.05854E+03  5.396E-01  1.039E+01  4.158E-01  1.180E+00
   2    7    7     5     2    4.6139E+00  1.4897E+00   3.1242E+00  0.000E+00  0.000E+00  0.000E+00  1.05398E+03  4.817E-01  8.557E+00  4.279E-01  1.161E+00
   2    8    7     5     3    3.1242E+00  8.2855E-01   2.2957E+00  0.000E+00  0.000E+00  0.000E+00  1.04968E+03  4.253E-01  6.911E+00  2.419E-01  1.142E+00
   2    8    6     5     4    2.2957E+00  4.9455E-01   1.8011E+00  0.000E+00  0.000E+00  0.000E+00  1.04664E+03  3.856E-01  5.843E+00  1.461E-01  1.129E+00
   2    9    6     6     1    1.6595E+01  2.2771E+00   1.4318E+01  0.000E+00  0.000E+00  0.000E+00  1.04352E+03  7.951E-01  1.200E+01  6.000E-01  1.265E+00
   2   10    7     6     2    1.4318E+01  2.2223E+00   1.2096E+01  0.000E+00  0.000E+00  0.000E+00  1.03889E+03  7.038E-01  1.200E+01  6.000E-01  1.235E+00
   2   11    7     6     3    1.2096E+01  1.3292E+00   1.0766E+01  0.000E+00  0.000E+00  0.000E+00  1.03426E+03  6.258E-01  1.200E+01  6.000E-01  7.385E-01
   2   12    7     6     4    1.0766E+01  1.4756E-01   1.0619E+01  0.000E+00  0.000E+00  0.000E+00  1.02968E+03  5.913E-01  1.200E+01  6.000E-01  8.198E-02
   2   13    7     6     5    1.0619E+01 -6.8571E-01   1.1304E+01  0.000E+00  0.000E+00  0.000E+00  1.02651E+03  6.040E-01  1.200E+01  2.400E-01 -9.524E-01
   2   14    9     7     1    1.5000E+02  2.8947E+00   1.4711E+02  0.000E+00  0.000E+00  0.000E+00  1.03986E+03  2.284E+00  5.528E+01  5.591E+00  1.726E-01
   2   13    8     7     2    1.4711E+02  3.6258E+00   1.4348E+02  0.000E+00  0.000E+00  0.000E+00  1.03477E+03  2.266E+00  5.520E+01  6.141E+00  1.968E-01
   2   13    7     7     3    1.4348E+02  1.6781E+00   1.4180E+02  0.000E+00  0.000E+00  0.000E+00  1.02967E+03  2.252E+00  5.513E+01  5.575E+00  1.003E-01
   2   13    6     8     1    1.5311E+02 -2.1450E-01   1.5335E+02  3.216E-02  0.000E+00  0.000E+00  1.02469E+03  2.817E+00  4.084E+01  4.162E+00 -1.718E-02
   2   13    5     8     2    1.5335E+02 -3.2307E+00   1.5662E+02  3.216E-02  0.000E+00  0.000E+00  1.01845E+03  2.829E+00  4.102E+01  4.180E+00 -2.576E-01
   2   13    4     8     3    1.5662E+02 -5.8295E+00   1.6248E+02  3.216E-02  0.000E+00  0.000E+00  1.01224E+03  2.861E+00  4.148E+01  4.227E+00 -4.597E-01
   2   13    3     8     4    1.6248E+02 -6.3296E+00   1.6884E+02  3.216E-02  0.000E+00  0.000E+00  1.00603E+03  2.902E+00  4.208E+01  4.288E+00 -4.920E-01
   2   13    2     8     5    1.6884E+02 -3.9505E+00   1.7282E+02  3.216E-02  0.000E+00  0.000E+00  9.99812E+02  2.937E+00  4.258E+01  4.339E+00 -3.035E-01
   2   13    1     8     6    1.7282E+02 -2.6237E+00   1.7546E+02  1.929E-02  0.000E+00  0.000E+00  9.94833E+02  2.958E+00  4.289E+01  2.623E+00 -3.335E-01
   2    4    5     9     1    0.0000E+00  0.0000E+00   0.0000E+00  0.000E+00  0.000E+00  0.000E+00  1.06000E+03  1.675E-04  2.000E+01  2.000E-03 -2.376E-01
   2    4    5    10     1    0.0000E+00  0.0000E+00   0.0000E+00  0.000E+00  0.000E+00  0.000E+00  1.08000E+03  0.000E+00  2.000E+01  2.000E-03  1.000E+00





     0  LAKE CELLS ARE DRY.

 PERIOD    10     TIME STEP    15     TIME STEP LENGTH  1.7520E+05
 PERIOD TIME  2.6280E+06     TOTAL SIMULATION TIME  2.6280E+07


                 HYDROLOGIC BUDGET SUMMARIES FOR SIMULATED LAKES
     (ALL FLUID FLUXES ARE VOLUMES ADDED TO THE LAKE DURING PRESENT TIME STEP)
     ----------------------------------------------------------------------------------------
 LAKE    STAGE         VOLUME     VOL. CHANGE      PRECIP     EVAPORATION    SPECIFIED RUNOFF     COMPUTED RUNOFF    TOTAL RUNOFF
   1  1.074507E+03  1.095647E+03 -1.337305E+01  0.000000E+00  1.209694E+02   0.000000E+00          0.000000E+00      0.000000E+00

            GROUND WATER            SURFACE WATER        WATER          UZF INFIL.
 LAKE    INFLOW     OUTFLOW      INFLOW     OUTFLOW       USE        FROM LAKE
   1  0.0000E+00  0.0000E+00  0.0000E+00  0.0000E+00  0.0000E+00       1.4219E+02

      CONNECTED LAKE   TIME-STEP         STAGE-CHANGE          PERCENT
 LAKE    INFLUX      SURFACE AREA   TIME STEP  CUMULATIVE    DISCREPANCY
   1   0.0000E+00     1.7262E+04  -4.5512E-05  6.5463E-03     -94.918
 --------------------------------------------------------------------------------



            CUMULATIVE HYDROLOGIC BUDGET SUMMARIES FOR SIMULATED LAKES
     (ALL FLUID FLUXES ARE SUMS OF VOLUMES ADDED TO THE LAKE SINCE INITIAL TIME)
     ---------------------------------------------------------------------------
 LAKE       PRECIP       EVAP     SPECIFIED RUNOFF   COMPUTED RUNOFF   TOTAL RUNOFF
   1     0.0000E+00  1.6120E+06       0.0000E+00       0.0000E+00       0.0000E+00

            GROUND WATER            SURFACE WATER       UZF INFIL.
 LAKE    INFLOW     OUTFLOW      INFLOW     OUTFLOW     FROM LAKE
   1  0.0000E+00  0.0000E+00  1.9325E+08  4.8782E+07    1.4291E+08

         WATER    CONNECTED LAKE   CHANGE       PERCENT
 LAKE     USE         INFLUX       IN VOL.    DISCREPANCY
   1   0.0000E+00   0.0000E+00   1.0956E+03     -0.031
 --------------------------------------------------------------------------------

 UBDSV3 SAVING "           GW ET" ON UNIT  61 AT TIME STEP    15, STRESS PERIOD  10
 UBDSV3 SAVING "    UZF RECHARGE" ON UNIT  61 AT TIME STEP    15, STRESS PERIOD  10
 UBDSV3 SAVING " SURFACE LEAKAGE" ON UNIT  61 AT TIME STEP    15, STRESS PERIOD  10
 UBDSV3 SAVING "       HORT+DUNN" ON UNIT  61 AT TIME STEP    15, STRESS PERIOD  10
 UBDSV3 SAVING "  STORAGE CHANGE" ON UNIT  61 AT TIME STEP    15, STRESS PERIOD  10


UNSATURATED ZONE PACKAGE VOLUMETRIC BUDGET FOR  TIME STEP    15 STRESS PERIOD   10
  ------------------------------------------------------------------------------



     CUMULATIVE VOLUMES      L**3       RATES FOR THIS TIME STEP      L**3/T
     ------------------                 ------------------------

           IN:                                      IN:
           ---                                      ---
        INFILTRATION =  1607713164.8922          INFILTRATION =          16.8890

          OUT:                                     OUT:
          ----                                     ----
              UZF ET =  1507126386.8562                UZF ET =          21.0697
        UZF RECHARGE =   718013239.3269          UZF RECHARGE =           5.6987

            IN - OUT =  -617426461.2909              IN - OUT =          -9.8793

          STORAGE:                                 STORAGE:
          --------                                 --------
      STORAGE CHANGE =  -617434663.0244        STORAGE CHANGE =          -9.8764

 PERCENT DISCREPANCY IS DIFFERENCE BETWEEN IN-OUT MINUS CHANGE IN STORAGE
 DIVIDED BY THE AVERAGE OF IN AND OUT TIMES 100

 PERCENT DISCREPANCY =           0.00     PERCENT DISCREPANCY =          -0.01






1
              HEAD IN LAYER   1 AT END OF TIME STEP    15 IN STRESS PERIOD   10
  -----------------------------------------------------------------------------

           1       2       3       4       5       6       7       8       9      10
 ...................................................................................
   1  6999.00 6999.00 6999.00 6999.00 6999.00 6999.00 6999.00 6999.00 6999.00 6999.00
   2  6999.00 6999.00 6999.00 6999.00 6999.00 6999.00 6999.00 6999.00 6999.00 6999.00
   3  6999.00 6999.00 6999.00 6999.00 6999.00 6999.00 6999.00 6999.00 6999.00 6999.00
   4  6999.00 6999.00 6999.00 6999.00 1074.51 6999.00 6999.00 6999.00 6999.00 6999.00
   5  6999.00 6999.00 6999.00 6999.00 6999.00 6999.00 6999.00 6999.00 6999.00 6999.00
   6  6999.00 6999.00 6999.00 6999.00 6999.00 6999.00 6999.00 6999.00 6999.00 6999.00
   7  6999.00 6999.00 6999.00 6999.00 6999.00 6999.00 6999.00 6999.00 6999.00 6999.00
   8  6999.00 6999.00 6999.00 6999.00 6999.00 6999.00 6999.00 6999.00 6999.00 6999.00
   9  6999.00 6999.00 6999.00 6999.00 6999.00 6999.00 6999.00 6999.00 6999.00 6999.00
  10  6999.00 6999.00 6999.00 6999.00 6999.00 6999.00 6999.00 6999.00 6999.00 6999.00
  11  6999.00 6999.00 6999.00 6999.00 6999.00 6999.00 6999.00 6999.00 6999.00 6999.00
  12  6999.00 6999.00 6999.00 6999.00 6999.00 6999.00 6999.00 6999.00 6999.00 6999.00
  13  6999.00 6999.00 6999.00 6999.00 6999.00 6999.00 6999.00 6999.00 6999.00 6999.00
  14  6999.00 6999.00 6999.00 6999.00 6999.00 6999.00 6999.00 6999.00 6999.00 6999.00
  15  6999.00 6999.00 6999.00 6999.00 6999.00 6999.00 6999.00 6999.00 6999.00 6999.00
1
              HEAD IN LAYER   2 AT END OF TIME STEP    15 IN STRESS PERIOD   10
  -----------------------------------------------------------------------------

           1       2       3       4       5       6       7       8       9      10
 ...................................................................................
   1  1093.27 1089.28 6999.00 6999.00 6999.00 6999.00 6999.00 6999.00 6999.00 6999.00
   2  1088.66 1086.50 1080.83 6999.00 6999.00 1067.82 1067.05 1065.48 6999.00 6999.00
   3  6999.00 1076.24 1075.20 1070.90 1068.94 1067.18 1065.95 1063.94 6999.00 6999.00
   4  1062.13 1064.66 1065.58 1062.61 1060.71 1058.88 1058.42 1060.42 1058.17 6999.00
   5  1057.98 1056.28 1056.12 1055.44 1055.02 1054.86 1053.46 1053.75 1056.11 1057.93
   6  1053.83 1050.52 1049.48 1049.67 1049.95 1051.02 1050.75 1051.64 1052.89 1056.98
   7  1050.86 1045.38 1044.00 1044.52 1045.29 1046.95 1047.49 1048.54 1049.36 6999.00
   8  6999.00 1039.65 1038.96 1039.75 1040.68 1042.58 1043.24 1044.60 1045.39 6999.00
   9  6999.00 1033.66 1033.65 1034.76 1035.84 1037.81 1038.59 1038.85 1040.98 6999.00
  10  6999.00 1027.57 1028.21 1029.87 1031.29 1033.27 1035.07 1035.28 1037.53 1040.69
  11  6999.00 1019.99 1021.40 1024.84 1027.10 1029.63 1032.05 1032.93 1035.23 6999.00
  12  1003.23 1009.93 1014.29 1019.03 1022.82 1026.53 1029.44 1031.59 1034.84 6999.00
  13   995.83 1000.72 1007.50 1013.61 1019.23 1024.74 1029.37 1034.18 1036.74 6999.00
  14  6999.00 1007.12 1010.87 1015.83 1020.95 1025.83 1030.22 1035.21 1039.35 6999.00
  15  6999.00 6999.00 1018.81 1021.60 1025.18 1028.10 6999.00 6999.00 6999.00 6999.00

 HEAD WILL BE SAVED ON UNIT   58 AT END OF TIME STEP   15, STRESS PERIOD   10
1
  VOLUMETRIC BUDGET FOR ENTIRE MODEL AT END OF TIME STEP   15, STRESS PERIOD  10
  ------------------------------------------------------------------------------

     CUMULATIVE VOLUMES      L**3       RATES FOR THIS TIME STEP      L**3/T
     ------------------                 ------------------------

           IN:                                      IN:
           ---                                      ---
             STORAGE =   208223344.0000               STORAGE =          12.6441
       CONSTANT HEAD =           0.0000         CONSTANT HEAD =           0.0000
               WELLS =           0.0000                 WELLS =           0.0000
     HEAD DEP BOUNDS =     5637593.0000       HEAD DEP BOUNDS =           0.2148
      STREAM LEAKAGE =  1980603136.0000        STREAM LEAKAGE =          53.5798
       LAKE  SEEPAGE =           0.0000         LAKE  SEEPAGE =           0.0000
        UZF RECHARGE =   718013120.0000          UZF RECHARGE =           5.6987
               GW ET =           0.0000                 GW ET =           0.0000
     SURFACE LEAKAGE =           0.0000       SURFACE LEAKAGE =           0.0000

            TOTAL IN =  2912477184.0000              TOTAL IN =          72.1374

          OUT:                                     OUT:
          ----                                     ----
             STORAGE =  1712843392.0000               STORAGE =          33.3467
       CONSTANT HEAD =           0.0000         CONSTANT HEAD =           0.0000
               WELLS =   315360000.0000                 WELLS =           0.0000
     HEAD DEP BOUNDS =     8009409.0000       HEAD DEP BOUNDS =           0.2977
      STREAM LEAKAGE =   478083904.0000        STREAM LEAKAGE =          22.8641
       LAKE  SEEPAGE =           0.0000         LAKE  SEEPAGE =           0.0000
        UZF RECHARGE =           0.0000          UZF RECHARGE =           0.0000
               GW ET =   391322720.0000                 GW ET =          18.6848
     SURFACE LEAKAGE =    88572344.0000       SURFACE LEAKAGE =           0.1682

           TOTAL OUT =  2994191872.0000             TOTAL OUT =          75.3616

            IN - OUT =   -81714688.0000              IN - OUT =          -3.2242

 PERCENT DISCREPANCY =          -2.77     PERCENT DISCREPANCY =          -4.37






         TIME SUMMARY AT END OF TIME STEP   15 IN STRESS PERIOD   10
                    SECONDS     MINUTES      HOURS       DAYS        YEARS
                    -----------------------------------------------------------
   TIME STEP LENGTH 1.75200E+05  2920.0      48.667      2.0278     5.55175E-03
 STRESS PERIOD TIME 2.62800E+06  43800.      730.00      30.417     8.32763E-02
         TOTAL TIME 2.62800E+07 4.38000E+05  7300.0      304.17     0.83276    
1
1
                            STRESS PERIOD NO.   11, LENGTH =   2628000.    
                            -----------------------------------------------

                              NUMBER OF TIME STEPS =    15

                               MULTIPLIER FOR DELT =     1.000

                            INITIAL TIME STEP SIZE =   175200.0    

 WELL NO.  LAYER   ROW   COL   STRESS RATE         
 --------------------------------------------------
      1      2      6      4      -3.000    
      2      2      6      5      -3.000    
      3      2      7      4      -3.000    
      4      2      7      5      -3.000    
      5      2      8      4      -3.000    
      6      2      8      5      -3.000    
      7      2      9      4      -3.000    
      8      2      9      5      -3.000    
      9      2     10      4      -3.000    
     10      2     10      5      -3.000    

     10 WELLS

 REUSING NON-PARAMETER GHB CELLS FROM LAST STRESS PERIOD

      2 GHB CELLS

 REUSING STREAM SEGMENT DATA FROM LAST STRESS PERIOD



            AREAL INFILTRATION RATE
 READING ON UNIT   19 WITH FORMAT: (10F4.0)            

            1           2           3           4           5           6           7           8           9          10
 ........................................................................................................................
   1   1.0000E-09  2.0000E-09   0.000       0.000       0.000       0.000       0.000       0.000       0.000       0.000    
   2   2.0000E-09  1.0000E-09  2.0000E-09   0.000       0.000      8.0000E-09  8.0000E-09  5.0000E-09   0.000       0.000    
   3    0.000      5.0000E-09  1.0000E-09  1.0000E-09  8.0000E-09  8.0000E-09  5.0000E-09  5.0000E-09   0.000       0.000    
   4   8.0000E-09  5.0000E-09  1.0000E-09  1.0000E-09  1.0000E-09  1.0000E-09  1.0000E-09  1.0000E-09  2.0000E-09   0.000    
   5   8.0000E-09  5.0000E-09  1.0000E-09  1.0000E-09  1.0000E-09  1.0000E-09  1.0000E-09  1.0000E-09  1.0000E-09  1.0000E-09
   6   8.0000E-09  5.0000E-09  5.0000E-09  2.0000E-09  2.0000E-09  1.0000E-09  1.0000E-09  1.0000E-09  1.0000E-09  5.0000E-09
   7   8.0000E-09  5.0000E-09  5.0000E-09  2.0000E-09  2.0000E-09  1.0000E-09  1.0000E-09  2.0000E-09  2.0000E-09   0.000    
   8    0.000      5.0000E-09  5.0000E-09  2.0000E-09  2.0000E-09  1.0000E-09  1.0000E-09  2.0000E-09  5.0000E-09   0.000    
   9    0.000      5.0000E-09  5.0000E-09  2.0000E-09  2.0000E-09  1.0000E-09  1.0000E-09  2.0000E-09  5.0000E-09   0.000    
  10    0.000      5.0000E-09  5.0000E-09  2.0000E-09  2.0000E-09  1.0000E-09  1.0000E-09  2.0000E-09  5.0000E-09  8.0000E-09
  11    0.000      1.0000E-09  1.0000E-09  1.0000E-09  1.0000E-09  1.0000E-09  1.0000E-09  2.0000E-09  5.0000E-09   0.000    
  12   1.0000E-09  1.0000E-09  1.0000E-09  1.0000E-09  1.0000E-09  1.0000E-09  1.0000E-09  1.0000E-09  2.0000E-09   0.000    
  13   1.0000E-09  1.0000E-09  2.0000E-09  2.0000E-09  2.0000E-09  2.0000E-09  2.0000E-09  1.0000E-09  1.0000E-09   0.000    
  14    0.000      2.0000E-09  5.0000E-09  5.0000E-09  5.0000E-09  5.0000E-09  5.0000E-09  2.0000E-09  1.0000E-09   0.000    
  15    0.000       0.000      8.0000E-09  8.0000E-09  8.0000E-09  8.0000E-09   0.000       0.000       0.000       0.000    

USING ET RATE FROM PREVIOUS STRESS PERIOD. CURRENT PERIOD IS:      11

 USING ET EXTINCTION DEPTH FROM PREVIOUS STRESS PERIOD. CURRENT PERIOD IS:      11

 USING EXTINCTION WATER CONTENT FROM PREVIOUS STRESS PERIOD. CURRENT PERIOD IS:      11




 If any subsequent steady-state stress periods, min. and max. stages for each lake will be read in Record 9a.




 REUSING LAKE CONFIGURATION DATA FROM LAST STRESS PERIOD


 LAKE       PRECIP     EVAP     RUNOFF   WITHDRAW   BOTTOM     AREA
----------------------------------------------------------------------
   1     0.000E+00 4.000E-08 0.000E+00  0.000E+00 1.074E+03 2.500E+07




         C               INTERFACE CONDUCTANCES BETWEEN LAKE AND AQUIFER CELLS
   L     O          (IF TYPE = 6, CONDUCTANCE (L^2/T) IS BETWEEN AQUIFER CELL AND OVERLYING LAKE CELL.)
   A     L  L  T    (IF TYPE = 1 TO 4, CONDUCTANCES ARE PER UNIT SATURATED THICKNESS (L/T).)
   Y  R  U  A  Y
   E  O  M  K  P                        LAKEBED      C O N D U C T A N C E S
   R  W  N  E  E     DELTA Y   DELTA X  LEAKANCE   LAKEBED   AQUIFER  COMBINED
 _______________________________________________________________________________
   1  4  4  1  2    5.00E+03  5.00E+03  5.00E-02  2.50E+02  6.00E-03  6.00E-03
   1  3  5  1  3    5.00E+03  5.00E+03  5.00E-02  2.50E+02  1.20E-03  1.20E-03
   2  4  5  1  6    5.00E+03  5.00E+03  5.00E-02  1.25E+06  9.42E+00  9.42E+00
   1  5  5  1  4    5.00E+03  5.00E+03  5.00E-02  2.50E+02  6.00E-03  6.00E-03
   1  4  6  1  1    5.00E+03  5.00E+03  5.00E-02  2.50E+02  6.00E-03  6.00E-03
      LAKE     INFLOWING STREAM SEGMENT
         1                  9

 MAXIMUM NUMBER OF STREAMS INFLOWING TO A LAKE IS    1

      LAKE     OUTFLOWING STREAM SEGMENT
         1                 10

 MAXIMUM NUMBER OF STREAMS OUTFLOWING FROM A LAKE IS    1

 
 SOLVING FOR HEAD 
                                                   Max.-Head-Change                         Max.-Flux-Residual
  Residual-Control   Outer-Iter.   Inner-Iter.     Column Row Layer    Maximum-Head-Change  Column Row Layer    Maximum-Flux-Residual          L2-NORM 
          0                 1           2             3    3     2      -0.8621448584E-01       3    3    2        -0.2347578628E+01      0.7529875125E+01
          0                 2           2             3    3     2       0.8176195355E-02       3    3    2         0.2308861484E+00      0.6703987711E+00
          0                 3           1             3    3     2      -0.4605045359E-03       3    3    2        -0.1348420918E-01      0.3869303586E-01

    ------------------------------------------------
       NWT REQUIRED            3 OUTER ITERATIONS 
       AND A TOTAL OF          5 INNER ITERATIONS.
    ------------------------------------------------

 NO OUTPUT CONTROL FOR STRESS PERIOD   11   TIME STEP    1
 
 SOLVING FOR HEAD 
                                                   Max.-Head-Change                         Max.-Flux-Residual
  Residual-Control   Outer-Iter.   Inner-Iter.     Column Row Layer    Maximum-Head-Change  Column Row Layer    Maximum-Flux-Residual          L2-NORM 
          0                 1           2             3    3     2      -0.9292432577E-01       3    3    2        -0.2527506951E+01      0.7403163186E+01
          0                 2           2             3    3     2       0.8805745228E-02       3    3    2         0.2485054219E+00      0.7066062554E+00
          0                 3           1             3    3     2      -0.4954856399E-03       3    3    2        -0.1450643888E-01      0.4098962144E-01

    ------------------------------------------------
       NWT REQUIRED            3 OUTER ITERATIONS 
       AND A TOTAL OF          5 INNER ITERATIONS.
    ------------------------------------------------

 NO OUTPUT CONTROL FOR STRESS PERIOD   11   TIME STEP    2
 
 SOLVING FOR HEAD 
                                                   Max.-Head-Change                         Max.-Flux-Residual
  Residual-Control   Outer-Iter.   Inner-Iter.     Column Row Layer    Maximum-Head-Change  Column Row Layer    Maximum-Flux-Residual          L2-NORM 
          0                 1           2             3    3     2      -0.8919245172E-01       3    3    2        -0.2423578443E+01      0.6986092485E+01
          0                 2           2             3    3     2       0.8452119348E-02       3    3    2         0.2383700791E+00      0.6669704169E+00
          0                 3           1             3    3     2      -0.4757018047E-03       3    3    2        -0.1392290973E-01      0.3871321685E-01

    ------------------------------------------------
       NWT REQUIRED            3 OUTER ITERATIONS 
       AND A TOTAL OF          5 INNER ITERATIONS.
    ------------------------------------------------

 NO OUTPUT CONTROL FOR STRESS PERIOD   11   TIME STEP    3
 
 SOLVING FOR HEAD 
                                                   Max.-Head-Change                         Max.-Flux-Residual
  Residual-Control   Outer-Iter.   Inner-Iter.     Column Row Layer    Maximum-Head-Change  Column Row Layer    Maximum-Flux-Residual          L2-NORM 
          0                 1           2             3    3     2      -0.8569543086E-01       3    3    2        -0.2326236194E+01      0.6621103388E+01
          0                 2           2             3    3     2       0.8120727902E-02       3    3    2         0.2288732958E+00      0.6331554017E+00
          0                 3           1             3    3     2      -0.4572026183E-03       3    3    2        -0.1337603837E-01      0.3677535607E-01

    ------------------------------------------------
       NWT REQUIRED            3 OUTER ITERATIONS 
       AND A TOTAL OF          5 INNER ITERATIONS.
    ------------------------------------------------

 NO OUTPUT CONTROL FOR STRESS PERIOD   11   TIME STEP    4
 
 SOLVING FOR HEAD 
                                                   Max.-Head-Change                         Max.-Flux-Residual
  Residual-Control   Outer-Iter.   Inner-Iter.     Column Row Layer    Maximum-Head-Change  Column Row Layer    Maximum-Flux-Residual          L2-NORM 
          0                 1           2             3    3     2      -0.1036824933E+00       3    3    2        -0.2812724535E+01      0.7917060564E+01
          0                 2           2             3    3     2       0.9800429155E-02       3    3    2         0.2761355835E+00      0.7555613352E+00
          0                 3           1             3    3     2      -0.5495658911E-03       3    3    2        -0.1608092012E-01      0.4391092152E-01

    ------------------------------------------------
       NWT REQUIRED            3 OUTER ITERATIONS 
       AND A TOTAL OF          5 INNER ITERATIONS.
    ------------------------------------------------

 OUTPUT CONTROL FOR STRESS PERIOD   11   TIME STEP    5
    PRINT BUDGET
    SAVE BUDGET

            WELLS   PERIOD   11   STEP   5
 WELL      1   LAYER   2   ROW     6   COL     4   RATE    -3.00000    
 WELL      2   LAYER   2   ROW     6   COL     5   RATE    -3.00000    
 WELL      3   LAYER   2   ROW     7   COL     4   RATE    -3.00000    
 WELL      4   LAYER   2   ROW     7   COL     5   RATE    -3.00000    
 WELL      5   LAYER   2   ROW     8   COL     4   RATE    -3.00000    
 WELL      6   LAYER   2   ROW     8   COL     5   RATE    -3.00000    
 WELL      7   LAYER   2   ROW     9   COL     4   RATE    -3.00000    
 WELL      8   LAYER   2   ROW     9   COL     5   RATE    -3.00000    
 WELL      9   LAYER   2   ROW    10   COL     4   RATE    -3.00000    
 WELL     10   LAYER   2   ROW    10   COL     5   RATE    -3.00000    

  HEAD DEP BOUNDS   PERIOD   11   STEP     5
 BOUNDARY      1   LAYER   2   ROW    13   COL     1   RATE   -0.294754    
 BOUNDARY      2   LAYER   2   ROW    14   COL     9   RATE    0.214898    



 STREAM LISTING     PERIOD     11   STEP        5

 LAYER ROW COL. STREAM  RCH.  FLOW INTO     FLOW TO   FLOW OUT OF   OVRLND.     DIRECT     STREAM       STREAM     STREAM     STREAM   STREAMBED  STREAMBED
                SEG.NO.  NO.  STRM. RCH.    AQUIFER    STRM. RCH.    RUNOFF     PRECIP       ET          HEAD       DEPTH      WIDTH   CONDCTNC.   GRADIENT

   2    1    1     1     1    2.6315E+01  6.8513E-01   2.5630E+01  0.000E+00  0.000E+00  0.000E+00  1.09424E+03  1.194E+00  1.325E+01  5.964E-01  3.829E-01
   2    2    2     1     2    2.5630E+01  2.6978E+00   2.2932E+01  0.000E+00  0.000E+00  0.000E+00  1.08923E+03  1.169E+00  1.292E+01  9.043E-01  9.945E-01
   2    3    3     1     3    2.2932E+01  3.0470E+00   1.9885E+01  0.000E+00  0.000E+00  0.000E+00  1.08354E+03  1.124E+00  1.231E+01  7.389E-01  1.375E+00
   2    3    4     1     4    1.9885E+01  2.6172E+00   1.7268E+01  0.000E+00  0.000E+00  0.000E+00  1.07848E+03  1.077E+00  1.157E+01  6.420E-01  1.359E+00
   2    4    5     2     1    7.2679E+00  0.0000E+00   7.2679E+00  0.000E+00  0.000E+00  0.000E+00  1.07244E+03  5.078E-01  1.200E+01  7.800E-01  1.169E+00
   2    5    6     2     2    7.2679E+00  2.0235E+00   5.2444E+00  0.000E+00  0.000E+00  0.000E+00  1.06688E+03  3.725E-01  1.200E+01  6.000E-01  1.124E+00
   2    6    6     2     3    5.2444E+00  1.9361E+00   3.3083E+00  0.000E+00  0.000E+00  0.000E+00  1.06202E+03  2.269E-01  1.200E+01  6.000E-01  1.076E+00
   2    7    6     2     4    3.3083E+00  1.8169E+00   1.4913E+00  0.000E+00  0.000E+00  0.000E+00  1.05710E+03  2.819E-02  1.200E+01  6.000E-01  1.009E+00
   2    8    6     2     5    1.4913E+00  0.0000E+00   1.4913E+00  0.000E+00  0.000E+00  0.000E+00  1.05236E+03  0.000E+00  1.200E+01  6.000E-01  1.000E+00
   2    3    5     3     1    1.0000E+01  2.8252E+00   7.1748E+00  0.000E+00  0.000E+00  0.000E+00  1.07555E+03  1.909E+00  9.636E+00  7.227E-01  1.955E+00
   2    3    6     3     2    7.1748E+00  2.4905E+00   4.6843E+00  0.000E+00  0.000E+00  0.000E+00  1.07264E+03  1.727E+00  8.909E+00  6.682E-01  1.864E+00
   2    3    7     3     3    4.6843E+00  1.9718E+00   2.7125E+00  0.000E+00  0.000E+00  0.000E+00  1.06987E+03  1.555E+00  8.218E+00  5.547E-01  1.777E+00
   2    4    8     3     4    2.7125E+00  2.2567E+00   4.5579E-01  0.000E+00  0.000E+00  0.000E+00  1.06682E+03  1.364E+00  7.455E+00  6.709E-01  1.682E+00
   2    5    8     3     5    4.5579E-01  4.5579E-01   0.0000E+00  0.000E+00  0.000E+00  0.000E+00  1.06362E+03  0.000E+00  6.655E+00  4.991E-01  1.582E+00
   2    6    8     3     6    0.0000E+00  0.0000E+00   0.0000E+00  0.000E+00  0.000E+00  0.000E+00  1.06055E+03  0.000E+00  6.145E+00  1.844E-01  1.000E+00
   2    5   10     4     1    1.0000E+01  9.0525E-01   9.0947E+00  0.000E+00  0.000E+00  0.000E+00  1.07835E+03  6.210E-01  1.000E+01  2.500E-01  1.207E+00
   2    5    9     4     2    9.0947E+00  1.7835E+00   7.3113E+00  0.000E+00  0.000E+00  0.000E+00  1.07148E+03  5.670E-01  1.000E+01  5.000E-01  1.189E+00
   2    6    8     4     3    7.3113E+00  1.2257E+00   6.0855E+00  0.000E+00  0.000E+00  0.000E+00  1.06368E+03  5.021E-01  1.000E+01  3.500E-01  1.167E+00
   2    6    8     5     1    6.0855E+00  1.4716E+00   4.6139E+00  0.000E+00  0.000E+00  0.000E+00  1.05854E+03  5.396E-01  1.039E+01  4.158E-01  1.180E+00
   2    7    7     5     2    4.6139E+00  1.4897E+00   3.1242E+00  0.000E+00  0.000E+00  0.000E+00  1.05398E+03  4.817E-01  8.557E+00  4.279E-01  1.161E+00
   2    8    7     5     3    3.1242E+00  8.2855E-01   2.2957E+00  0.000E+00  0.000E+00  0.000E+00  1.04968E+03  4.253E-01  6.911E+00  2.419E-01  1.142E+00
   2    8    6     5     4    2.2957E+00  4.9455E-01   1.8011E+00  0.000E+00  0.000E+00  0.000E+00  1.04664E+03  3.856E-01  5.843E+00  1.461E-01  1.129E+00
   2    9    6     6     1    3.2924E+00  1.8340E+00   1.4584E+00  0.000E+00  0.000E+00  0.000E+00  1.04278E+03  5.669E-02  1.200E+01  6.000E-01  1.019E+00
   2   10    7     6     2    1.4584E+00  0.0000E+00   1.4584E+00  0.000E+00  0.000E+00  0.000E+00  1.03818E+03  0.000E+00  1.200E+01  6.000E-01  1.000E+00
   2   11    7     6     3    1.4584E+00  0.0000E+00   1.4584E+00  0.000E+00  0.000E+00  0.000E+00  1.03364E+03  0.000E+00  1.200E+01  6.000E-01  5.781E-01
   2   12    7     6     4    1.4584E+00 -1.0917E-01   1.5676E+00  0.000E+00  0.000E+00  0.000E+00  1.02912E+03  3.093E-02  1.200E+01  6.000E-01 -6.065E-02
   2   13    7     6     5    1.5676E+00 -7.9288E-01   2.3605E+00  0.000E+00  0.000E+00  0.000E+00  1.02603E+03  1.176E-01  1.200E+01  2.400E-01 -1.101E+00
   2   14    9     7     1    1.5000E+02  2.9042E+00   1.4710E+02  0.000E+00  0.000E+00  0.000E+00  1.03986E+03  2.284E+00  5.528E+01  5.591E+00  1.731E-01
   2   13    8     7     2    1.4710E+02  3.6592E+00   1.4344E+02  0.000E+00  0.000E+00  0.000E+00  1.03477E+03  2.266E+00  5.520E+01  6.141E+00  1.986E-01
   2   13    7     7     3    1.4344E+02  1.8959E+00   1.4154E+02  0.000E+00  0.000E+00  0.000E+00  1.02967E+03  2.251E+00  5.513E+01  5.575E+00  1.134E-01
   2   13    6     8     1    1.4390E+02 -1.3852E-01   1.4406E+02  1.776E-02  0.000E+00  0.000E+00  1.02464E+03  2.763E+00  4.007E+01  4.083E+00 -1.131E-02
   2   13    5     8     2    1.4406E+02 -3.1681E+00   1.4724E+02  1.776E-02  0.000E+00  0.000E+00  1.01840E+03  2.775E+00  4.024E+01  4.101E+00 -2.575E-01
   2   13    4     8     3    1.4724E+02 -5.8234E+00   1.5308E+02  1.776E-02  0.000E+00  0.000E+00  1.01218E+03  2.808E+00  4.071E+01  4.149E+00 -4.679E-01
   2   13    3     8     4    1.5308E+02 -6.2613E+00   1.5936E+02  1.776E-02  0.000E+00  0.000E+00  1.00598E+03  2.850E+00  4.133E+01  4.211E+00 -4.956E-01
   2   13    2     8     5    1.5936E+02 -3.8236E+00   1.6320E+02  1.776E-02  0.000E+00  0.000E+00  9.99760E+02  2.885E+00  4.183E+01  4.262E+00 -2.990E-01
   2   13    1     8     6    1.6320E+02 -2.5136E+00   1.6573E+02  1.065E-02  0.000E+00  0.000E+00  9.94781E+02  2.906E+00  4.214E+01  2.576E+00 -3.252E-01
   2    4    5     9     1    0.0000E+00  0.0000E+00   0.0000E+00  0.000E+00  0.000E+00  0.000E+00  1.06000E+03  1.546E-04  2.000E+01  2.000E-03 -2.079E-01
   2    4    5    10     1    0.0000E+00  0.0000E+00   0.0000E+00  0.000E+00  0.000E+00  0.000E+00  1.08000E+03  0.000E+00  2.000E+01  2.000E-03  1.000E+00





     0  LAKE CELLS ARE DRY.

 PERIOD    11     TIME STEP     5     TIME STEP LENGTH  1.7520E+05
 PERIOD TIME  8.7600E+05     TOTAL SIMULATION TIME  2.7156E+07


                 HYDROLOGIC BUDGET SUMMARIES FOR SIMULATED LAKES
     (ALL FLUID FLUXES ARE VOLUMES ADDED TO THE LAKE DURING PRESENT TIME STEP)
     ----------------------------------------------------------------------------------------
 LAKE    STAGE         VOLUME     VOL. CHANGE      PRECIP     EVAPORATION    SPECIFIED RUNOFF     COMPUTED RUNOFF    TOTAL RUNOFF
   1  1.074506E+03  1.019780E+03 -1.742981E+01  0.000000E+00  1.125929E+02   0.000000E+00          0.000000E+00      0.000000E+00

            GROUND WATER            SURFACE WATER        WATER          UZF INFIL.
 LAKE    INFLOW     OUTFLOW      INFLOW     OUTFLOW       USE        FROM LAKE
   1  0.0000E+00  0.0000E+00  0.0000E+00  0.0000E+00  0.0000E+00       1.2342E+02

      CONNECTED LAKE   TIME-STEP         STAGE-CHANGE          PERCENT
 LAKE    INFLUX      SURFACE AREA   TIME STEP  CUMULATIVE    DISCREPANCY
   1   0.0000E+00     1.6066E+04  -1.3259E-04  6.0930E-03     -92.615
 --------------------------------------------------------------------------------



            CUMULATIVE HYDROLOGIC BUDGET SUMMARIES FOR SIMULATED LAKES
     (ALL FLUID FLUXES ARE SUMS OF VOLUMES ADDED TO THE LAKE SINCE INITIAL TIME)
     ---------------------------------------------------------------------------
 LAKE       PRECIP       EVAP     SPECIFIED RUNOFF   COMPUTED RUNOFF   TOTAL RUNOFF
   1     0.0000E+00  1.6126E+06       0.0000E+00       0.0000E+00       0.0000E+00

            GROUND WATER            SURFACE WATER       UZF INFIL.
 LAKE    INFLOW     OUTFLOW      INFLOW     OUTFLOW     FROM LAKE
   1  0.0000E+00  0.0000E+00  1.9325E+08  4.8782E+07    1.4291E+08

         WATER    CONNECTED LAKE   CHANGE       PERCENT
 LAKE     USE         INFLUX       IN VOL.    DISCREPANCY
   1   0.0000E+00   0.0000E+00   1.0198E+03     -0.031
 --------------------------------------------------------------------------------

 UBDSV3 SAVING "           GW ET" ON UNIT  61 AT TIME STEP     5, STRESS PERIOD  11
 UBDSV3 SAVING "    UZF RECHARGE" ON UNIT  61 AT TIME STEP     5, STRESS PERIOD  11
 UBDSV3 SAVING " SURFACE LEAKAGE" ON UNIT  61 AT TIME STEP     5, STRESS PERIOD  11
 UBDSV3 SAVING "       HORT+DUNN" ON UNIT  61 AT TIME STEP     5, STRESS PERIOD  11
 UBDSV3 SAVING "  STORAGE CHANGE" ON UNIT  61 AT TIME STEP     5, STRESS PERIOD  11


UNSATURATED ZONE PACKAGE VOLUMETRIC BUDGET FOR  TIME STEP     5 STRESS PERIOD   11
  ------------------------------------------------------------------------------



     CUMULATIVE VOLUMES      L**3       RATES FOR THIS TIME STEP      L**3/T
     ------------------                 ------------------------

           IN:                                      IN:
           ---                                      ---
        INFILTRATION =  1615111802.8215          INFILTRATION =           8.4464

          OUT:                                     OUT:
          ----                                     ----
              UZF ET =  1523046520.6955                UZF ET =          17.3631
        UZF RECHARGE =   721884928.4043          UZF RECHARGE =           4.1747

            IN - OUT =  -629819646.2783              IN - OUT =         -13.0914

          STORAGE:                                 STORAGE:
          --------                                 --------
      STORAGE CHANGE =  -629827530.9827        STORAGE CHANGE =         -13.0912

 PERCENT DISCREPANCY IS DIFFERENCE BETWEEN IN-OUT MINUS CHANGE IN STORAGE
 DIVIDED BY THE AVERAGE OF IN AND OUT TIMES 100

 PERCENT DISCREPANCY =           0.00     PERCENT DISCREPANCY =          -0.00






1
  VOLUMETRIC BUDGET FOR ENTIRE MODEL AT END OF TIME STEP    5, STRESS PERIOD  11
  ------------------------------------------------------------------------------

     CUMULATIVE VOLUMES      L**3       RATES FOR THIS TIME STEP      L**3/T
     ------------------                 ------------------------

           IN:                                      IN:
           ---                                      ---
             STORAGE =   234506272.0000               STORAGE =          35.6458
       CONSTANT HEAD =           0.0000         CONSTANT HEAD =           0.0000
               WELLS =           0.0000                 WELLS =           0.0000
     HEAD DEP BOUNDS =     5825813.5000       HEAD DEP BOUNDS =           0.2149
      STREAM LEAKAGE =  2024407296.0000        STREAM LEAKAGE =          43.3159
       LAKE  SEEPAGE =           0.0000         LAKE  SEEPAGE =           0.0000
        UZF RECHARGE =   721884864.0000          UZF RECHARGE =           4.1747
               GW ET =           0.0000                 GW ET =           0.0000
     SURFACE LEAKAGE =           0.0000       SURFACE LEAKAGE =           0.0000

            TOTAL IN =  2986624256.0000              TOTAL IN =          83.3512

          OUT:                                     OUT:
          ----                                     ----
             STORAGE =  1726255744.0000               STORAGE =          12.8882
       CONSTANT HEAD =           0.0000         CONSTANT HEAD =           0.0000
               WELLS =   341640000.0000                 WELLS =          30.0000
     HEAD DEP BOUNDS =     8268569.0000       HEAD DEP BOUNDS =           0.2948
      STREAM LEAKAGE =   498061600.0000        STREAM LEAKAGE =          22.6306
       LAKE  SEEPAGE =           0.0000         LAKE  SEEPAGE =           0.0000
        UZF RECHARGE =           0.0000          UZF RECHARGE =           0.0000
               GW ET =   407833664.0000                 GW ET =          18.8963
     SURFACE LEAKAGE =    88676488.0000       SURFACE LEAKAGE =       9.5087E-02

           TOTAL OUT =  3070736128.0000             TOTAL OUT =          84.8050

            IN - OUT =   -84111872.0000              IN - OUT =          -1.4538

 PERCENT DISCREPANCY =          -2.78     PERCENT DISCREPANCY =          -1.73






         TIME SUMMARY AT END OF TIME STEP    5 IN STRESS PERIOD   11
                    SECONDS     MINUTES      HOURS       DAYS        YEARS
                    -----------------------------------------------------------
   TIME STEP LENGTH 1.75200E+05  2920.0      48.667      2.0278     5.55175E-03
 STRESS PERIOD TIME 8.76000E+05  14600.      243.33      10.139     2.77588E-02
         TOTAL TIME 2.71560E+07 4.52600E+05  7543.3      314.31     0.86052    
1
 
 SOLVING FOR HEAD 
                                                   Max.-Head-Change                         Max.-Flux-Residual
  Residual-Control   Outer-Iter.   Inner-Iter.     Column Row Layer    Maximum-Head-Change  Column Row Layer    Maximum-Flux-Residual          L2-NORM 
          0                 1           2             3    3     2      -0.1025709375E+00       3    3    2        -0.2779481247E+01      0.7775032339E+01
          0                 2           2             3    3     2       0.9693282346E-02       3    3    2         0.2728953890E+00      0.7503573148E+00
          0                 3           1             3    3     2      -0.5434639556E-03       3    3    2        -0.1589468453E-01      0.4425890389E-01

    ------------------------------------------------
       NWT REQUIRED            3 OUTER ITERATIONS 
       AND A TOTAL OF          5 INNER ITERATIONS.
    ------------------------------------------------

 NO OUTPUT CONTROL FOR STRESS PERIOD   11   TIME STEP    6
 
 SOLVING FOR HEAD 
                                                   Max.-Head-Change                         Max.-Flux-Residual
  Residual-Control   Outer-Iter.   Inner-Iter.     Column Row Layer    Maximum-Head-Change  Column Row Layer    Maximum-Flux-Residual          L2-NORM 
          0                 1           2             3    3     2      -0.9867451884E-01       3    3    2        -0.2671238090E+01      0.7421370488E+01
          0                 2           2             3    3     2       0.9325231617E-02       3    3    2         0.2623537725E+00      0.7156285277E+00
          0                 3           1             3    3     2      -0.5229405121E-03       3    3    2        -0.1528935641E-01      0.4216185057E-01

    ------------------------------------------------
       NWT REQUIRED            3 OUTER ITERATIONS 
       AND A TOTAL OF          5 INNER ITERATIONS.
    ------------------------------------------------

 NO OUTPUT CONTROL FOR STRESS PERIOD   11   TIME STEP    7
 
 SOLVING FOR HEAD 
                                                   Max.-Head-Change                         Max.-Flux-Residual
  Residual-Control   Outer-Iter.   Inner-Iter.     Column Row Layer    Maximum-Head-Change  Column Row Layer    Maximum-Flux-Residual          L2-NORM 
          0                 1           2             3    3     2      -0.9502017615E-01       3    3    2        -0.2569754777E+01      0.7112828148E+01
          0                 2           2             3    3     2       0.8980098229E-02       3    3    2         0.2524665963E+00      0.6864395957E+00
          0                 3           1             3    3     2      -0.5036792348E-03       3    3    2        -0.1472101194E-01      0.4039756260E-01

    ------------------------------------------------
       NWT REQUIRED            3 OUTER ITERATIONS 
       AND A TOTAL OF          5 INNER ITERATIONS.
    ------------------------------------------------

 NO OUTPUT CONTROL FOR STRESS PERIOD   11   TIME STEP    8
 
 SOLVING FOR HEAD 
                                                   Max.-Head-Change                         Max.-Flux-Residual
  Residual-Control   Outer-Iter.   Inner-Iter.     Column Row Layer    Maximum-Head-Change  Column Row Layer    Maximum-Flux-Residual          L2-NORM 
          0                 1           2             3    3     2      -0.1069704937E+00       3    3    2        -0.2893326038E+01      0.7926188498E+01
          0                 2           2             3    3     2       0.1006978218E-01       3    3    2         0.2831167119E+00      0.7599695009E+00
          0                 3           1             3    3     2      -0.5614535729E-03       3    3    2        -0.1640013889E-01      0.4510174442E-01

    ------------------------------------------------
       NWT REQUIRED            3 OUTER ITERATIONS 
       AND A TOTAL OF          5 INNER ITERATIONS.
    ------------------------------------------------

 NO OUTPUT CONTROL FOR STRESS PERIOD   11   TIME STEP    9
 
 SOLVING FOR HEAD 
                                                   Max.-Head-Change                         Max.-Flux-Residual
  Residual-Control   Outer-Iter.   Inner-Iter.     Column Row Layer    Maximum-Head-Change  Column Row Layer    Maximum-Flux-Residual          L2-NORM 
          0                 1           2             3    3     2      -0.1050268811E+00       3    3    2        -0.2838184320E+01      0.7729852905E+01
          0                 2           2             3    3     2       0.9888036648E-02       3    3    2         0.2777943077E+00      0.7374568982E+00
          0                 3           1             3    3     2      -0.5519383375E-03       3    3    2        -0.1609919872E-01      0.4351548432E-01

    ------------------------------------------------
       NWT REQUIRED            3 OUTER ITERATIONS 
       AND A TOTAL OF          5 INNER ITERATIONS.
    ------------------------------------------------

 OUTPUT CONTROL FOR STRESS PERIOD   11   TIME STEP   10
    PRINT BUDGET
    SAVE BUDGET

            WELLS   PERIOD   11   STEP  10
 WELL      1   LAYER   2   ROW     6   COL     4   RATE    -3.00000    
 WELL      2   LAYER   2   ROW     6   COL     5   RATE    -3.00000    
 WELL      3   LAYER   2   ROW     7   COL     4   RATE    -3.00000    
 WELL      4   LAYER   2   ROW     7   COL     5   RATE    -3.00000    
 WELL      5   LAYER   2   ROW     8   COL     4   RATE    -3.00000    
 WELL      6   LAYER   2   ROW     8   COL     5   RATE    -3.00000    
 WELL      7   LAYER   2   ROW     9   COL     4   RATE    -3.00000    
 WELL      8   LAYER   2   ROW     9   COL     5   RATE    -3.00000    
 WELL      9   LAYER   2   ROW    10   COL     4   RATE    -3.00000    
 WELL     10   LAYER   2   ROW    10   COL     5   RATE    -3.00000    

  HEAD DEP BOUNDS   PERIOD   11   STEP    10
 BOUNDARY      1   LAYER   2   ROW    13   COL     1   RATE   -0.292824    
 BOUNDARY      2   LAYER   2   ROW    14   COL     9   RATE    0.214954    



 STREAM LISTING     PERIOD     11   STEP       10

 LAYER ROW COL. STREAM  RCH.  FLOW INTO     FLOW TO   FLOW OUT OF   OVRLND.     DIRECT     STREAM       STREAM     STREAM     STREAM   STREAMBED  STREAMBED
                SEG.NO.  NO.  STRM. RCH.    AQUIFER    STRM. RCH.    RUNOFF     PRECIP       ET          HEAD       DEPTH      WIDTH   CONDCTNC.   GRADIENT

   2    1    1     1     1    1.9000E+01  6.3179E-01   1.8368E+01  0.000E+00  0.000E+00  0.000E+00  1.09413E+03  1.079E+00  1.160E+01  5.220E-01  4.034E-01
   2    2    2     1     2    1.8368E+01  2.4464E+00   1.5922E+01  0.000E+00  0.000E+00  0.000E+00  1.08911E+03  1.052E+00  1.111E+01  7.780E-01  1.048E+00
   2    3    3     1     3    1.5922E+01  2.4734E+00   1.3448E+01  0.000E+00  0.000E+00  0.000E+00  1.08342E+03  1.006E+00  1.029E+01  6.174E-01  1.335E+00
   2    3    4     1     4    1.3448E+01  2.0789E+00   1.1370E+01  0.000E+00  0.000E+00  0.000E+00  1.07837E+03  9.580E-01  9.464E+00  5.252E-01  1.319E+00
   2    4    5     2     1    1.3695E+00  0.0000E+00   1.3695E+00  0.000E+00  0.000E+00  0.000E+00  1.07199E+03  5.286E-02  1.200E+01  7.800E-01  1.018E+00
   2    5    6     2     2    1.3695E+00  0.0000E+00   1.3695E+00  0.000E+00  0.000E+00  0.000E+00  1.06651E+03  0.000E+00  1.200E+01  6.000E-01  1.000E+00
   2    6    6     2     3    1.3695E+00  0.0000E+00   1.3695E+00  0.000E+00  0.000E+00  0.000E+00  1.06179E+03  0.000E+00  1.200E+01  6.000E-01  1.000E+00
   2    7    6     2     4    1.3695E+00  0.0000E+00   1.3695E+00  0.000E+00  0.000E+00  0.000E+00  1.05708E+03  0.000E+00  1.200E+01  6.000E-01  1.000E+00
   2    8    6     2     5    1.3695E+00  0.0000E+00   1.3695E+00  0.000E+00  0.000E+00  0.000E+00  1.05236E+03  0.000E+00  1.200E+01  6.000E-01  1.000E+00
   2    3    5     3     1    1.0000E+01  2.8252E+00   7.1748E+00  0.000E+00  0.000E+00  0.000E+00  1.07555E+03  1.909E+00  9.636E+00  7.227E-01  1.955E+00
   2    3    6     3     2    7.1748E+00  2.4905E+00   4.6843E+00  0.000E+00  0.000E+00  0.000E+00  1.07264E+03  1.727E+00  8.909E+00  6.682E-01  1.864E+00
   2    3    7     3     3    4.6843E+00  1.9718E+00   2.7125E+00  0.000E+00  0.000E+00  0.000E+00  1.06987E+03  1.555E+00  8.218E+00  5.547E-01  1.777E+00
   2    4    8     3     4    2.7125E+00  2.2567E+00   4.5579E-01  0.000E+00  0.000E+00  0.000E+00  1.06682E+03  1.364E+00  7.455E+00  6.709E-01  1.682E+00
   2    5    8     3     5    4.5579E-01  4.5579E-01   0.0000E+00  0.000E+00  0.000E+00  0.000E+00  1.06362E+03  0.000E+00  6.655E+00  4.991E-01  1.582E+00
   2    6    8     3     6    0.0000E+00  0.0000E+00   0.0000E+00  0.000E+00  0.000E+00  0.000E+00  1.06055E+03  0.000E+00  6.145E+00  1.844E-01  1.000E+00
   2    5   10     4     1    1.0000E+01  9.0525E-01   9.0947E+00  0.000E+00  0.000E+00  0.000E+00  1.07835E+03  6.210E-01  1.000E+01  2.500E-01  1.207E+00
   2    5    9     4     2    9.0947E+00  1.7835E+00   7.3113E+00  0.000E+00  0.000E+00  0.000E+00  1.07148E+03  5.670E-01  1.000E+01  5.000E-01  1.189E+00
   2    6    8     4     3    7.3113E+00  1.2257E+00   6.0855E+00  0.000E+00  0.000E+00  0.000E+00  1.06368E+03  5.021E-01  1.000E+01  3.500E-01  1.167E+00
   2    6    8     5     1    6.0855E+00  1.4716E+00   4.6139E+00  0.000E+00  0.000E+00  0.000E+00  1.05854E+03  5.396E-01  1.039E+01  4.158E-01  1.180E+00
   2    7    7     5     2    4.6139E+00  1.4897E+00   3.1242E+00  0.000E+00  0.000E+00  0.000E+00  1.05398E+03  4.817E-01  8.557E+00  4.279E-01  1.161E+00
   2    8    7     5     3    3.1242E+00  8.2855E-01   2.2957E+00  0.000E+00  0.000E+00  0.000E+00  1.04968E+03  4.253E-01  6.911E+00  2.419E-01  1.142E+00
   2    8    6     5     4    2.2957E+00  4.9455E-01   1.8011E+00  0.000E+00  0.000E+00  0.000E+00  1.04664E+03  3.856E-01  5.843E+00  1.461E-01  1.129E+00
   2    9    6     6     1    3.1706E+00  1.8340E+00   1.3366E+00  0.000E+00  0.000E+00  0.000E+00  1.04278E+03  5.669E-02  1.200E+01  6.000E-01  1.019E+00
   2   10    7     6     2    1.3366E+00  0.0000E+00   1.3366E+00  0.000E+00  0.000E+00  0.000E+00  1.03818E+03  0.000E+00  1.200E+01  6.000E-01  1.000E+00
   2   11    7     6     3    1.3366E+00  0.0000E+00   1.3366E+00  0.000E+00  0.000E+00  0.000E+00  1.03364E+03  0.000E+00  1.200E+01  6.000E-01  6.609E-01
   2   12    7     6     4    1.3366E+00 -4.3568E-02   1.3802E+00  0.000E+00  0.000E+00  0.000E+00  1.02911E+03  1.784E-02  1.200E+01  6.000E-01 -2.420E-02
   2   13    7     6     5    1.3802E+00 -7.8798E-01   2.1682E+00  0.000E+00  0.000E+00  0.000E+00  1.02602E+03  1.078E-01  1.200E+01  2.400E-01 -1.094E+00
   2   14    9     7     1    1.5000E+02  2.9123E+00   1.4709E+02  0.000E+00  0.000E+00  0.000E+00  1.03986E+03  2.284E+00  5.528E+01  5.591E+00  1.736E-01
   2   13    8     7     2    1.4709E+02  3.6886E+00   1.4340E+02  0.000E+00  0.000E+00  0.000E+00  1.03477E+03  2.266E+00  5.520E+01  6.140E+00  2.002E-01
   2   13    7     7     3    1.4340E+02  2.0605E+00   1.4134E+02  0.000E+00  0.000E+00  0.000E+00  1.02967E+03  2.250E+00  5.513E+01  5.575E+00  1.232E-01
   2   13    6     8     1    1.4351E+02  1.6633E-02   1.4350E+02  1.297E-02  0.000E+00  0.000E+00  1.02464E+03  2.761E+00  4.003E+01  4.079E+00  1.359E-03
   2   13    5     8     2    1.4350E+02 -3.0657E+00   1.4658E+02  1.297E-02  0.000E+00  0.000E+00  1.01840E+03  2.772E+00  4.019E+01  4.096E+00 -2.495E-01
   2   13    4     8     3    1.4658E+02 -5.7786E+00   1.5237E+02  1.297E-02  0.000E+00  0.000E+00  1.01218E+03  2.804E+00  4.065E+01  4.143E+00 -4.650E-01
   2   13    3     8     4    1.5237E+02 -6.1837E+00   1.5857E+02  1.297E-02  0.000E+00  0.000E+00  1.00597E+03  2.846E+00  4.126E+01  4.205E+00 -4.902E-01
   2   13    2     8     5    1.5857E+02 -3.6846E+00   1.6227E+02  1.297E-02  0.000E+00  0.000E+00  9.99755E+02  2.880E+00  4.175E+01  4.255E+00 -2.887E-01
   2   13    1     8     6    1.6227E+02 -2.3930E+00   1.6467E+02  7.784E-03  0.000E+00  0.000E+00  9.94775E+02  2.900E+00  4.205E+01  2.571E+00 -3.102E-01
   2    4    5     9     1    0.0000E+00  0.0000E+00   0.0000E+00  0.000E+00  0.000E+00  0.000E+00  1.06000E+03  1.268E-04  2.000E+01  2.000E-03 -1.495E-01
   2    4    5    10     1    0.0000E+00  0.0000E+00   0.0000E+00  0.000E+00  0.000E+00  0.000E+00  1.08000E+03  0.000E+00  2.000E+01  2.000E-03  1.000E+00





     0  LAKE CELLS ARE DRY.

 PERIOD    11     TIME STEP    10     TIME STEP LENGTH  1.7520E+05
 PERIOD TIME  1.7520E+06     TOTAL SIMULATION TIME  2.8032E+07


                 HYDROLOGIC BUDGET SUMMARIES FOR SIMULATED LAKES
     (ALL FLUID FLUXES ARE VOLUMES ADDED TO THE LAKE DURING PRESENT TIME STEP)
     ----------------------------------------------------------------------------------------
 LAKE    STAGE         VOLUME     VOL. CHANGE      PRECIP     EVAPORATION    SPECIFIED RUNOFF     COMPUTED RUNOFF    TOTAL RUNOFF
   1  1.074505E+03  8.940806E+02 -3.740082E+01  0.000000E+00  9.871459E+01   0.000000E+00          0.000000E+00      0.000000E+00

            GROUND WATER            SURFACE WATER        WATER          UZF INFIL.
 LAKE    INFLOW     OUTFLOW      INFLOW     OUTFLOW       USE        FROM LAKE
   1  0.0000E+00  0.0000E+00  0.0000E+00  0.0000E+00  0.0000E+00       9.5830E+01

      CONNECTED LAKE   TIME-STEP         STAGE-CHANGE          PERCENT
 LAKE    INFLUX      SURFACE AREA   TIME STEP  CUMULATIVE    DISCREPANCY
   1   0.0000E+00     1.4086E+04  -2.7327E-04  5.3420E-03     -80.775
 --------------------------------------------------------------------------------



            CUMULATIVE HYDROLOGIC BUDGET SUMMARIES FOR SIMULATED LAKES
     (ALL FLUID FLUXES ARE SUMS OF VOLUMES ADDED TO THE LAKE SINCE INITIAL TIME)
     ---------------------------------------------------------------------------
 LAKE       PRECIP       EVAP     SPECIFIED RUNOFF   COMPUTED RUNOFF   TOTAL RUNOFF
   1     0.0000E+00  1.6131E+06       0.0000E+00       0.0000E+00       0.0000E+00

            GROUND WATER            SURFACE WATER       UZF INFIL.
 LAKE    INFLOW     OUTFLOW      INFLOW     OUTFLOW     FROM LAKE
   1  0.0000E+00  0.0000E+00  1.9325E+08  4.8782E+07    1.4292E+08

         WATER    CONNECTED LAKE   CHANGE       PERCENT
 LAKE     USE         INFLUX       IN VOL.    DISCREPANCY
   1   0.0000E+00   0.0000E+00   8.9408E+02     -0.032
 --------------------------------------------------------------------------------

 UBDSV3 SAVING "           GW ET" ON UNIT  61 AT TIME STEP    10, STRESS PERIOD  11
 UBDSV3 SAVING "    UZF RECHARGE" ON UNIT  61 AT TIME STEP    10, STRESS PERIOD  11
 UBDSV3 SAVING " SURFACE LEAKAGE" ON UNIT  61 AT TIME STEP    10, STRESS PERIOD  11
 UBDSV3 SAVING "       HORT+DUNN" ON UNIT  61 AT TIME STEP    10, STRESS PERIOD  11
 UBDSV3 SAVING "  STORAGE CHANGE" ON UNIT  61 AT TIME STEP    10, STRESS PERIOD  11


UNSATURATED ZONE PACKAGE VOLUMETRIC BUDGET FOR  TIME STEP    10 STRESS PERIOD   11
  ------------------------------------------------------------------------------



     CUMULATIVE VOLUMES      L**3       RATES FOR THIS TIME STEP      L**3/T
     ------------------                 ------------------------

           IN:                                      IN:
           ---                                      ---
        INFILTRATION =  1622511134.7496          INFILTRATION =           8.4469

          OUT:                                     OUT:
          ----                                     ----
              UZF ET =  1537570403.5324                UZF ET =          15.9886
        UZF RECHARGE =   725277566.7967          UZF RECHARGE =           3.5945

            IN - OUT =  -640336835.5796              IN - OUT =         -11.1362

          STORAGE:                                 STORAGE:
          --------                                 --------
      STORAGE CHANGE =  -640343850.2232        STORAGE CHANGE =         -11.1346

 PERCENT DISCREPANCY IS DIFFERENCE BETWEEN IN-OUT MINUS CHANGE IN STORAGE
 DIVIDED BY THE AVERAGE OF IN AND OUT TIMES 100

 PERCENT DISCREPANCY =           0.00     PERCENT DISCREPANCY =          -0.01






1
  VOLUMETRIC BUDGET FOR ENTIRE MODEL AT END OF TIME STEP   10, STRESS PERIOD  11
  ------------------------------------------------------------------------------

     CUMULATIVE VOLUMES      L**3       RATES FOR THIS TIME STEP      L**3/T
     ------------------                 ------------------------

           IN:                                      IN:
           ---                                      ---
             STORAGE =   266515872.0000               STORAGE =          38.7482
       CONSTANT HEAD =           0.0000         CONSTANT HEAD =           0.0000
               WELLS =           0.0000                 WELLS =           0.0000
     HEAD DEP BOUNDS =     6014097.0000       HEAD DEP BOUNDS =           0.2150
      STREAM LEAKAGE =  2058852224.0000        STREAM LEAKAGE =          36.3415
       LAKE  SEEPAGE =           0.0000         LAKE  SEEPAGE =           0.0000
        UZF RECHARGE =   725277504.0000          UZF RECHARGE =           3.5945
               GW ET =           0.0000                 GW ET =           0.0000
     SURFACE LEAKAGE =           0.0000       SURFACE LEAKAGE =           0.0000

            TOTAL IN =  3056659712.0000              TOTAL IN =          78.8991

          OUT:                                     OUT:
          ----                                     ----
             STORAGE =  1735502592.0000               STORAGE =           9.1468
       CONSTANT HEAD =           0.0000         CONSTANT HEAD =           0.0000
               WELLS =   367920000.0000                 WELLS =          30.0000
     HEAD DEP BOUNDS =     8525697.0000       HEAD DEP BOUNDS =           0.2928
      STREAM LEAKAGE =   517484608.0000        STREAM LEAKAGE =          21.9371
       LAKE  SEEPAGE =           0.0000         LAKE  SEEPAGE =           0.0000
        UZF RECHARGE =           0.0000          UZF RECHARGE =           0.0000
               GW ET =   424338016.0000                 GW ET =          18.7853
     SURFACE LEAKAGE =    88744248.0000       SURFACE LEAKAGE =       6.8964E-02

           TOTAL OUT =  3142514944.0000             TOTAL OUT =          80.2311

            IN - OUT =   -85855232.0000              IN - OUT =          -1.3319

 PERCENT DISCREPANCY =          -2.77     PERCENT DISCREPANCY =          -1.67






         TIME SUMMARY AT END OF TIME STEP   10 IN STRESS PERIOD   11
                    SECONDS     MINUTES      HOURS       DAYS        YEARS
                    -----------------------------------------------------------
   TIME STEP LENGTH 1.75200E+05  2920.0      48.667      2.0278     5.55175E-03
 STRESS PERIOD TIME 1.75200E+06  29200.      486.67      20.278     5.55175E-02
         TOTAL TIME 2.80320E+07 4.67200E+05  7786.7      324.44     0.88828    
1
 
 SOLVING FOR HEAD 
                                                   Max.-Head-Change                         Max.-Flux-Residual
  Residual-Control   Outer-Iter.   Inner-Iter.     Column Row Layer    Maximum-Head-Change  Column Row Layer    Maximum-Flux-Residual          L2-NORM 
          0                 1           2             3    3     2      -0.1013594401E+00       3    3    2        -0.2736134518E+01      0.7435566735E+01
          0                 2           2             3    3     2       0.9545462957E-02       3    3    2         0.2678907551E+00      0.7102415197E+00
          0                 3           1             3    3     2      -0.5330270818E-03       3    3    2        -0.1553349696E-01      0.4189218741E-01

    ------------------------------------------------
       NWT REQUIRED            3 OUTER ITERATIONS 
       AND A TOTAL OF          5 INNER ITERATIONS.
    ------------------------------------------------

 NO OUTPUT CONTROL FOR STRESS PERIOD   11   TIME STEP   11
 
 SOLVING FOR HEAD 
                                                   Max.-Head-Change                         Max.-Flux-Residual
  Residual-Control   Outer-Iter.   Inner-Iter.     Column Row Layer    Maximum-Head-Change  Column Row Layer    Maximum-Flux-Residual          L2-NORM 
          0                 1           2             3    3     2      -0.1051928115E+00       5    4    2        -0.2875441988E+01      0.7744867078E+01
          0                 2           2             3    3     2       0.9908745768E-02       3    3    2         0.2778843057E+00      0.7380559137E+00
          0                 3           1             3    3     2      -0.5532758586E-03       3    3    2        -0.1611186832E-01      0.4419165195E-01

    ------------------------------------------------
       NWT REQUIRED            3 OUTER ITERATIONS 
       AND A TOTAL OF          5 INNER ITERATIONS.
    ------------------------------------------------

 NO OUTPUT CONTROL FOR STRESS PERIOD   11   TIME STEP   12
 
 SOLVING FOR HEAD 
                                                   Max.-Head-Change                         Max.-Flux-Residual
  Residual-Control   Outer-Iter.   Inner-Iter.     Column Row Layer    Maximum-Head-Change  Column Row Layer    Maximum-Flux-Residual          L2-NORM 
          0                 1           2             8    4     2      -0.1238808909E+00       3    3    2        -0.2976476482E+01      0.7899489473E+01
          0                 2           2             3    3     2       0.1039977131E-01       3    3    2         0.2913929963E+00      0.7640528396E+00
          0                 3           1             3    3     2      -0.5809715469E-03       3    3    2        -0.1689307590E-01      0.4456374218E-01

    ------------------------------------------------
       NWT REQUIRED            3 OUTER ITERATIONS 
       AND A TOTAL OF          5 INNER ITERATIONS.
    ------------------------------------------------

 NO OUTPUT CONTROL FOR STRESS PERIOD   11   TIME STEP   13
 
 SOLVING FOR HEAD 
                                                   Max.-Head-Change                         Max.-Flux-Residual
  Residual-Control   Outer-Iter.   Inner-Iter.     Column Row Layer    Maximum-Head-Change  Column Row Layer    Maximum-Flux-Residual          L2-NORM 
          0                 1           2             8    4     2      -0.1212651835E+00       3    3    2        -0.2875574309E+01      0.7653857434E+01
          0                 2           2             3    3     2       0.1006642726E-01       3    3    2         0.2815828134E+00      0.7439199395E+00
          0                 3           1             3    3     2      -0.5625717134E-03       3    3    2        -0.1633087535E-01      0.4338640967E-01

    ------------------------------------------------
       NWT REQUIRED            3 OUTER ITERATIONS 
       AND A TOTAL OF          5 INNER ITERATIONS.
    ------------------------------------------------

 NO OUTPUT CONTROL FOR STRESS PERIOD   11   TIME STEP   14
 
 SOLVING FOR HEAD 
                                                   Max.-Head-Change                         Max.-Flux-Residual
  Residual-Control   Outer-Iter.   Inner-Iter.     Column Row Layer    Maximum-Head-Change  Column Row Layer    Maximum-Flux-Residual          L2-NORM 
          0                 1           2             8    4     2      -0.1186721577E+00       3    3    2        -0.2782965031E+01      0.7443772290E+01
          0                 2           2             3    3     2       0.9755995285E-02       3    3    2         0.2725765677E+00      0.7229443619E+00
          0                 3           1             3    3     2      -0.5454342719E-03       3    3    2        -0.1581493188E-01      0.4220421280E-01

    ------------------------------------------------
       NWT REQUIRED            3 OUTER ITERATIONS 
       AND A TOTAL OF          5 INNER ITERATIONS.
    ------------------------------------------------

 OUTPUT CONTROL FOR STRESS PERIOD   11   TIME STEP   15
    PRINT BUDGET
    PRINT HEAD FOR ALL LAYERS
    SAVE HEAD FOR ALL LAYERS
    SAVE BUDGET

            WELLS   PERIOD   11   STEP  15
 WELL      1   LAYER   2   ROW     6   COL     4   RATE    -3.00000    
 WELL      2   LAYER   2   ROW     6   COL     5   RATE    -3.00000    
 WELL      3   LAYER   2   ROW     7   COL     4   RATE    -3.00000    
 WELL      4   LAYER   2   ROW     7   COL     5   RATE    -3.00000    
 WELL      5   LAYER   2   ROW     8   COL     4   RATE    -3.00000    
 WELL      6   LAYER   2   ROW     8   COL     5   RATE    -3.00000    
 WELL      7   LAYER   2   ROW     9   COL     4   RATE    -3.00000    
 WELL      8   LAYER   2   ROW     9   COL     5   RATE    -3.00000    
 WELL      9   LAYER   2   ROW    10   COL     4   RATE    -3.00000    
 WELL     10   LAYER   2   ROW    10   COL     5   RATE    -3.00000    

  HEAD DEP BOUNDS   PERIOD   11   STEP    15
 BOUNDARY      1   LAYER   2   ROW    13   COL     1   RATE   -0.291600    
 BOUNDARY      2   LAYER   2   ROW    14   COL     9   RATE    0.214990    



 STREAM LISTING     PERIOD     11   STEP       15

 LAYER ROW COL. STREAM  RCH.  FLOW INTO     FLOW TO   FLOW OUT OF   OVRLND.     DIRECT     STREAM       STREAM     STREAM     STREAM   STREAMBED  STREAMBED
                SEG.NO.  NO.  STRM. RCH.    AQUIFER    STRM. RCH.    RUNOFF     PRECIP       ET          HEAD       DEPTH      WIDTH   CONDCTNC.   GRADIENT

   2    1    1     1     1    1.4000E+01  5.7927E-01   1.3421E+01  0.000E+00  0.000E+00  0.000E+00  1.09403E+03  9.861E-01  9.945E+00  4.475E-01  4.315E-01
   2    2    2     1     2    1.3421E+01  2.2036E+00   1.1217E+01  0.000E+00  0.000E+00  0.000E+00  1.08901E+03  9.560E-01  9.429E+00  6.601E-01  1.113E+00
   2    3    3     1     3    1.1217E+01  2.0126E+00   9.2045E+00  0.000E+00  0.000E+00  0.000E+00  1.08332E+03  9.055E-01  8.589E+00  5.153E-01  1.302E+00
   2    3    4     1     4    9.2045E+00  1.6492E+00   7.5553E+00  0.000E+00  0.000E+00  0.000E+00  1.07826E+03  8.490E-01  7.720E+00  4.285E-01  1.283E+00
   2    4    5     2     1    0.0000E+00  0.0000E+00   0.0000E+00  0.000E+00  0.000E+00  0.000E+00  1.07193E+03  0.000E+00  1.200E+01  7.800E-01  1.000E+00
   2    5    6     2     2    0.0000E+00  0.0000E+00   0.0000E+00  0.000E+00  0.000E+00  0.000E+00  1.06651E+03  0.000E+00  1.200E+01  6.000E-01  1.000E+00
   2    6    6     2     3    0.0000E+00  0.0000E+00   0.0000E+00  0.000E+00  0.000E+00  0.000E+00  1.06179E+03  0.000E+00  1.200E+01  6.000E-01  1.000E+00
   2    7    6     2     4    0.0000E+00  0.0000E+00   0.0000E+00  0.000E+00  0.000E+00  0.000E+00  1.05708E+03  0.000E+00  1.200E+01  6.000E-01  1.000E+00
   2    8    6     2     5    0.0000E+00  0.0000E+00   0.0000E+00  0.000E+00  0.000E+00  0.000E+00  1.05236E+03  0.000E+00  1.200E+01  6.000E-01  1.000E+00
   2    3    5     3     1    7.5553E+00  2.8252E+00   4.7301E+00  0.000E+00  0.000E+00  0.000E+00  1.07555E+03  1.909E+00  9.636E+00  7.227E-01  1.955E+00
   2    3    6     3     2    4.7301E+00  2.4905E+00   2.2396E+00  0.000E+00  0.000E+00  0.000E+00  1.07264E+03  1.727E+00  8.909E+00  6.682E-01  1.864E+00
   2    3    7     3     3    2.2396E+00  1.9718E+00   2.6780E-01  0.000E+00  0.000E+00  0.000E+00  1.06987E+03  1.555E+00  8.218E+00  5.547E-01  1.777E+00
   2    4    8     3     4    2.6780E-01  2.6780E-01   0.0000E+00  0.000E+00  0.000E+00  0.000E+00  1.06682E+03  0.000E+00  7.455E+00  6.709E-01  1.682E+00
   2    5    8     3     5    0.0000E+00  0.0000E+00   0.0000E+00  0.000E+00  0.000E+00  0.000E+00  1.06245E+03  0.000E+00  6.655E+00  4.991E-01  1.000E+00
   2    6    8     3     6    0.0000E+00  0.0000E+00   0.0000E+00  0.000E+00  0.000E+00  0.000E+00  1.06055E+03  0.000E+00  6.145E+00  1.844E-01  1.000E+00
   2    5   10     4     1    1.0000E+01  9.0525E-01   9.0947E+00  0.000E+00  0.000E+00  0.000E+00  1.07835E+03  6.210E-01  1.000E+01  2.500E-01  1.207E+00
   2    5    9     4     2    9.0947E+00  1.7835E+00   7.3113E+00  0.000E+00  0.000E+00  0.000E+00  1.07148E+03  5.670E-01  1.000E+01  5.000E-01  1.189E+00
   2    6    8     4     3    7.3113E+00  1.2257E+00   6.0855E+00  0.000E+00  0.000E+00  0.000E+00  1.06368E+03  5.021E-01  1.000E+01  3.500E-01  1.167E+00
   2    6    8     5     1    6.0855E+00  1.4716E+00   4.6139E+00  0.000E+00  0.000E+00  0.000E+00  1.05854E+03  5.396E-01  1.039E+01  4.158E-01  1.180E+00
   2    7    7     5     2    4.6139E+00  1.4897E+00   3.1242E+00  0.000E+00  0.000E+00  0.000E+00  1.05398E+03  4.817E-01  8.557E+00  4.279E-01  1.161E+00
   2    8    7     5     3    3.1242E+00  8.2855E-01   2.2957E+00  0.000E+00  0.000E+00  0.000E+00  1.04968E+03  4.253E-01  6.911E+00  2.419E-01  1.142E+00
   2    8    6     5     4    2.2957E+00  4.9455E-01   1.8011E+00  0.000E+00  0.000E+00  0.000E+00  1.04664E+03  3.856E-01  5.843E+00  1.461E-01  1.129E+00
   2    9    6     6     1    1.8011E+00  1.8011E+00   0.0000E+00  0.000E+00  0.000E+00  0.000E+00  1.04278E+03  5.669E-02  1.200E+01  6.000E-01  1.019E+00
   2   10    7     6     2    0.0000E+00  0.0000E+00   0.0000E+00  0.000E+00  0.000E+00  0.000E+00  1.03818E+03  0.000E+00  1.200E+01  6.000E-01  1.000E+00
   2   11    7     6     3    0.0000E+00  0.0000E+00   0.0000E+00  0.000E+00  0.000E+00  0.000E+00  1.03364E+03  0.000E+00  1.200E+01  6.000E-01  7.256E-01
   2   12    7     6     4    0.0000E+00  0.0000E+00   0.0000E+00  0.000E+00  0.000E+00  0.000E+00  1.02909E+03  0.000E+00  1.200E+01  6.000E-01  3.993E-03
   2   13    7     6     5    0.0000E+00 -7.8491E-01   7.8491E-01  0.000E+00  0.000E+00  0.000E+00  1.02601E+03  1.010E-01  1.200E+01  2.400E-01 -1.090E+00
   2   14    9     7     1    1.5000E+02  2.9175E+00   1.4708E+02  0.000E+00  0.000E+00  0.000E+00  1.03986E+03  2.284E+00  5.528E+01  5.591E+00  1.739E-01
   2   13    8     7     2    1.4708E+02  3.7112E+00   1.4337E+02  0.000E+00  0.000E+00  0.000E+00  1.03477E+03  2.266E+00  5.520E+01  6.140E+00  2.015E-01
   2   13    7     7     3    1.4337E+02  2.1673E+00   1.4120E+02  0.000E+00  0.000E+00  0.000E+00  1.02967E+03  2.250E+00  5.512E+01  5.574E+00  1.296E-01
   2   13    6     8     1    1.4199E+02  1.0358E-01   1.4190E+02  1.089E-02  0.000E+00  0.000E+00  1.02463E+03  2.759E+00  4.001E+01  4.077E+00  8.469E-03
   2   13    5     8     2    1.4190E+02 -3.0136E+00   1.4492E+02  1.089E-02  0.000E+00  0.000E+00  1.01839E+03  2.770E+00  4.016E+01  4.093E+00 -2.454E-01
   2   13    4     8     3    1.4492E+02 -5.7575E+00   1.5069E+02  1.089E-02  0.000E+00  0.000E+00  1.01218E+03  2.801E+00  4.062E+01  4.139E+00 -4.637E-01
   2   13    3     8     4    1.5069E+02 -6.1482E+00   1.5685E+02  1.089E-02  0.000E+00  0.000E+00  1.00597E+03  2.843E+00  4.123E+01  4.201E+00 -4.878E-01
   2   13    2     8     5    1.5685E+02 -3.6132E+00   1.6047E+02  1.089E-02  0.000E+00  0.000E+00  9.99752E+02  2.877E+00  4.171E+01  4.251E+00 -2.833E-01
   2   13    1     8     6    1.6047E+02 -2.3161E+00   1.6279E+02  6.537E-03  0.000E+00  0.000E+00  9.94772E+02  2.897E+00  4.200E+01  2.568E+00 -3.006E-01
   2    4    5     9     1    0.0000E+00  0.0000E+00   0.0000E+00  0.000E+00  0.000E+00  0.000E+00  1.06000E+03  3.781E-05  2.000E+01  2.000E-03 -1.974E-02
   2    4    5    10     1    0.0000E+00  0.0000E+00   0.0000E+00  0.000E+00  0.000E+00  0.000E+00  1.08000E+03  0.000E+00  2.000E+01  2.000E-03  1.000E+00





     0  LAKE CELLS ARE DRY.

 PERIOD    11     TIME STEP    15     TIME STEP LENGTH  1.7520E+05
 PERIOD TIME  2.6280E+06     TOTAL SIMULATION TIME  2.8908E+07


                 HYDROLOGIC BUDGET SUMMARIES FOR SIMULATED LAKES
     (ALL FLUID FLUXES ARE VOLUMES ADDED TO THE LAKE DURING PRESENT TIME STEP)
     ----------------------------------------------------------------------------------------
 LAKE    STAGE         VOLUME     VOL. CHANGE      PRECIP     EVAPORATION    SPECIFIED RUNOFF     COMPUTED RUNOFF    TOTAL RUNOFF
   1  1.074503E+03  5.650465E+02 -8.131122E+01  0.000000E+00  6.238625E+01   0.000000E+00          0.000000E+00      0.000000E+00

            GROUND WATER            SURFACE WATER        WATER          UZF INFIL.
 LAKE    INFLOW     OUTFLOW      INFLOW     OUTFLOW       USE        FROM LAKE
   1  0.0000E+00  0.0000E+00  0.0000E+00  0.0000E+00  0.0000E+00       3.9954E+01

      CONNECTED LAKE   TIME-STEP         STAGE-CHANGE          PERCENT
 LAKE    INFLUX      SURFACE AREA   TIME STEP  CUMULATIVE    DISCREPANCY
   1   0.0000E+00     8.9021E+03  -5.3020E-04  3.3760E-03     -20.548
 --------------------------------------------------------------------------------



            CUMULATIVE HYDROLOGIC BUDGET SUMMARIES FOR SIMULATED LAKES
     (ALL FLUID FLUXES ARE SUMS OF VOLUMES ADDED TO THE LAKE SINCE INITIAL TIME)
     ---------------------------------------------------------------------------
 LAKE       PRECIP       EVAP     SPECIFIED RUNOFF   COMPUTED RUNOFF   TOTAL RUNOFF
   1     0.0000E+00  1.6135E+06       0.0000E+00       0.0000E+00       0.0000E+00

            GROUND WATER            SURFACE WATER       UZF INFIL.
 LAKE    INFLOW     OUTFLOW      INFLOW     OUTFLOW     FROM LAKE
   1  0.0000E+00  0.0000E+00  1.9325E+08  4.8782E+07    1.4292E+08

         WATER    CONNECTED LAKE   CHANGE       PERCENT
 LAKE     USE         INFLUX       IN VOL.    DISCREPANCY
   1   0.0000E+00   0.0000E+00   5.6505E+02     -0.032
 --------------------------------------------------------------------------------

 UBDSV3 SAVING "           GW ET" ON UNIT  61 AT TIME STEP    15, STRESS PERIOD  11
 UBDSV3 SAVING "    UZF RECHARGE" ON UNIT  61 AT TIME STEP    15, STRESS PERIOD  11
 UBDSV3 SAVING " SURFACE LEAKAGE" ON UNIT  61 AT TIME STEP    15, STRESS PERIOD  11
 UBDSV3 SAVING "       HORT+DUNN" ON UNIT  61 AT TIME STEP    15, STRESS PERIOD  11
 UBDSV3 SAVING "  STORAGE CHANGE" ON UNIT  61 AT TIME STEP    15, STRESS PERIOD  11


UNSATURATED ZONE PACKAGE VOLUMETRIC BUDGET FOR  TIME STEP    15 STRESS PERIOD   11
  ------------------------------------------------------------------------------



     CUMULATIVE VOLUMES      L**3       RATES FOR THIS TIME STEP      L**3/T
     ------------------                 ------------------------

           IN:                                      IN:
           ---                                      ---
        INFILTRATION =  1629910608.5335          INFILTRATION =           8.4469

          OUT:                                     OUT:
          ----                                     ----
              UZF ET =  1548909408.4193                UZF ET =          10.0170
        UZF RECHARGE =   728226594.6761          UZF RECHARGE =           3.2199

            IN - OUT =  -647225394.5620              IN - OUT =          -4.7901

          STORAGE:                                 STORAGE:
          --------                                 --------
      STORAGE CHANGE =  -647232196.0466        STORAGE CHANGE =          -4.7901

 PERCENT DISCREPANCY IS DIFFERENCE BETWEEN IN-OUT MINUS CHANGE IN STORAGE
 DIVIDED BY THE AVERAGE OF IN AND OUT TIMES 100

 PERCENT DISCREPANCY =           0.00     PERCENT DISCREPANCY =           0.00






1
              HEAD IN LAYER   1 AT END OF TIME STEP    15 IN STRESS PERIOD   11
  -----------------------------------------------------------------------------

           1       2       3       4       5       6       7       8       9      10
 ...................................................................................
   1  6999.00 6999.00 6999.00 6999.00 6999.00 6999.00 6999.00 6999.00 6999.00 6999.00
   2  6999.00 6999.00 6999.00 6999.00 6999.00 6999.00 6999.00 6999.00 6999.00 6999.00
   3  6999.00 6999.00 6999.00 6999.00 6999.00 6999.00 6999.00 6999.00 6999.00 6999.00
   4  6999.00 6999.00 6999.00 6999.00 1074.50 6999.00 6999.00 6999.00 6999.00 6999.00
   5  6999.00 6999.00 6999.00 6999.00 6999.00 6999.00 6999.00 6999.00 6999.00 6999.00
   6  6999.00 6999.00 6999.00 6999.00 6999.00 6999.00 6999.00 6999.00 6999.00 6999.00
   7  6999.00 6999.00 6999.00 6999.00 6999.00 6999.00 6999.00 6999.00 6999.00 6999.00
   8  6999.00 6999.00 6999.00 6999.00 6999.00 6999.00 6999.00 6999.00 6999.00 6999.00
   9  6999.00 6999.00 6999.00 6999.00 6999.00 6999.00 6999.00 6999.00 6999.00 6999.00
  10  6999.00 6999.00 6999.00 6999.00 6999.00 6999.00 6999.00 6999.00 6999.00 6999.00
  11  6999.00 6999.00 6999.00 6999.00 6999.00 6999.00 6999.00 6999.00 6999.00 6999.00
  12  6999.00 6999.00 6999.00 6999.00 6999.00 6999.00 6999.00 6999.00 6999.00 6999.00
  13  6999.00 6999.00 6999.00 6999.00 6999.00 6999.00 6999.00 6999.00 6999.00 6999.00
  14  6999.00 6999.00 6999.00 6999.00 6999.00 6999.00 6999.00 6999.00 6999.00 6999.00
  15  6999.00 6999.00 6999.00 6999.00 6999.00 6999.00 6999.00 6999.00 6999.00 6999.00
1
              HEAD IN LAYER   2 AT END OF TIME STEP    15 IN STRESS PERIOD   11
  -----------------------------------------------------------------------------

           1       2       3       4       5       6       7       8       9      10
 ...................................................................................
   1  1092.74 1089.36 6999.00 6999.00 6999.00 6999.00 6999.00 6999.00 6999.00 6999.00
   2  1088.83 1085.68 1080.61 6999.00 6999.00 1067.78 1066.99 1065.56 6999.00 6999.00
   3  6999.00 1076.15 1073.84 1069.58 1068.42 1067.04 1065.96 1064.05 6999.00 6999.00
   4  1062.30 1065.03 1065.46 1062.24 1060.06 1058.72 1058.56 1060.25 1058.29 6999.00
   5  1058.07 1056.68 1056.50 1055.41 1054.85 1054.46 1053.60 1054.00 1056.36 1058.06
   6  1053.87 1050.84 1049.84 1049.10 1049.29 1050.52 1050.91 1051.98 1053.12 1056.94
   7  1050.88 1045.63 1044.35 1043.85 1044.54 1046.40 1047.68 1048.93 1049.53 6999.00
   8  6999.00 1039.82 1039.27 1039.06 1039.93 1042.06 1043.40 1045.00 1045.43 6999.00
   9  6999.00 1033.77 1033.88 1034.04 1035.13 1037.57 1038.63 1039.18 1041.03 6999.00
  10  6999.00 1027.65 1028.35 1029.23 1030.70 1033.11 1034.46 1035.42 1037.62 1040.75
  11  6999.00 1020.08 1021.55 1024.86 1027.07 1029.55 1031.46 1032.98 1035.27 6999.00
  12  1003.19 1009.90 1014.29 1019.05 1022.80 1026.40 1029.08 1031.55 1034.88 6999.00
  13   995.67 1000.60 1007.43 1013.57 1019.13 1024.61 1029.28 1034.16 1036.73 6999.00
  14  6999.00 1007.12 1010.81 1015.77 1020.86 1025.71 1030.15 1035.19 1039.34 6999.00
  15  6999.00 6999.00 1018.84 1021.61 1025.16 1028.03 6999.00 6999.00 6999.00 6999.00

 HEAD WILL BE SAVED ON UNIT   58 AT END OF TIME STEP   15, STRESS PERIOD   11
1
  VOLUMETRIC BUDGET FOR ENTIRE MODEL AT END OF TIME STEP   15, STRESS PERIOD  11
  ------------------------------------------------------------------------------

     CUMULATIVE VOLUMES      L**3       RATES FOR THIS TIME STEP      L**3/T
     ------------------                 ------------------------

           IN:                                      IN:
           ---                                      ---
             STORAGE =   301532608.0000               STORAGE =          40.4797
       CONSTANT HEAD =           0.0000         CONSTANT HEAD =           0.0000
               WELLS =           0.0000                 WELLS =           0.0000
     HEAD DEP BOUNDS =     6202415.0000       HEAD DEP BOUNDS =           0.2150
      STREAM LEAKAGE =  2088714496.0000        STREAM LEAKAGE =          32.8996
       LAKE  SEEPAGE =           0.0000         LAKE  SEEPAGE =           0.0000
        UZF RECHARGE =   728226496.0000          UZF RECHARGE =           3.2199
               GW ET =           0.0000                 GW ET =           0.0000
     SURFACE LEAKAGE =           0.0000       SURFACE LEAKAGE =           0.0000

            TOTAL IN =  3124676096.0000              TOTAL IN =          76.8143

          OUT:                                     OUT:
          ----                                     ----
             STORAGE =  1741674240.0000               STORAGE =           5.9938
       CONSTANT HEAD =           0.0000         CONSTANT HEAD =           0.0000
               WELLS =   394200000.0000                 WELLS =          30.0000
     HEAD DEP BOUNDS =     8781532.0000       HEAD DEP BOUNDS =           0.2916
      STREAM LEAKAGE =   536528832.0000        STREAM LEAKAGE =          21.6335
       LAKE  SEEPAGE =           0.0000         LAKE  SEEPAGE =           0.0000
        UZF RECHARGE =           0.0000          UZF RECHARGE =           0.0000
               GW ET =   440770688.0000                 GW ET =          18.8332
     SURFACE LEAKAGE =    88798216.0000       SURFACE LEAKAGE =       5.7642E-02

           TOTAL OUT =  3210753536.0000             TOTAL OUT =          76.8097

            IN - OUT =   -86077440.0000              IN - OUT =       4.5090E-03

 PERCENT DISCREPANCY =          -2.72     PERCENT DISCREPANCY =           0.01






         TIME SUMMARY AT END OF TIME STEP   15 IN STRESS PERIOD   11
                    SECONDS     MINUTES      HOURS       DAYS        YEARS
                    -----------------------------------------------------------
   TIME STEP LENGTH 1.75200E+05  2920.0      48.667      2.0278     5.55175E-03
 STRESS PERIOD TIME 2.62800E+06  43800.      730.00      30.417     8.32763E-02
         TOTAL TIME 2.89080E+07 4.81800E+05  8030.0      334.58     0.91604    
1
1
                            STRESS PERIOD NO.   12, LENGTH =  0.2102400E+08
                            -----------------------------------------------

                              NUMBER OF TIME STEPS =   120

                               MULTIPLIER FOR DELT =     1.000

                            INITIAL TIME STEP SIZE =   175200.0    

      0 WELLS

 REUSING NON-PARAMETER GHB CELLS FROM LAST STRESS PERIOD

      2 GHB CELLS

 REUSING STREAM SEGMENT DATA FROM LAST STRESS PERIOD



            AREAL INFILTRATION RATE
 READING ON UNIT   19 WITH FORMAT: (10F4.0)            

            1           2           3           4           5           6           7           8           9          10
 ........................................................................................................................
   1   1.0000E-09  2.0000E-09   0.000       0.000       0.000       0.000       0.000       0.000       0.000       0.000    
   2   2.0000E-09  1.0000E-09  2.0000E-09   0.000       0.000      8.0000E-09  8.0000E-09  5.0000E-09   0.000       0.000    
   3    0.000      5.0000E-09  1.0000E-09  1.0000E-09  8.0000E-09  8.0000E-09  5.0000E-09  5.0000E-09   0.000       0.000    
   4   8.0000E-09  5.0000E-09  1.0000E-09  1.0000E-09  1.0000E-09  1.0000E-09  1.0000E-09  1.0000E-09  2.0000E-09   0.000    
   5   8.0000E-09  5.0000E-09  1.0000E-09  1.0000E-09  1.0000E-09  1.0000E-09  1.0000E-09  1.0000E-09  1.0000E-09  1.0000E-09
   6   8.0000E-09  5.0000E-09  5.0000E-09  2.0000E-09  2.0000E-09  1.0000E-09  1.0000E-09  1.0000E-09  1.0000E-09  5.0000E-09
   7   8.0000E-09  5.0000E-09  5.0000E-09  2.0000E-09  2.0000E-09  1.0000E-09  1.0000E-09  2.0000E-09  2.0000E-09   0.000    
   8    0.000      5.0000E-09  5.0000E-09  2.0000E-09  2.0000E-09  1.0000E-09  1.0000E-09  2.0000E-09  5.0000E-09   0.000    
   9    0.000      5.0000E-09  5.0000E-09  2.0000E-09  2.0000E-09  1.0000E-09  1.0000E-09  2.0000E-09  5.0000E-09   0.000    
  10    0.000      5.0000E-09  5.0000E-09  2.0000E-09  2.0000E-09  1.0000E-09  1.0000E-09  2.0000E-09  5.0000E-09  8.0000E-09
  11    0.000      1.0000E-09  1.0000E-09  1.0000E-09  1.0000E-09  1.0000E-09  1.0000E-09  2.0000E-09  5.0000E-09   0.000    
  12   1.0000E-09  1.0000E-09  1.0000E-09  1.0000E-09  1.0000E-09  1.0000E-09  1.0000E-09  1.0000E-09  2.0000E-09   0.000    
  13   1.0000E-09  1.0000E-09  2.0000E-09  2.0000E-09  2.0000E-09  2.0000E-09  2.0000E-09  1.0000E-09  1.0000E-09   0.000    
  14    0.000      2.0000E-09  5.0000E-09  5.0000E-09  5.0000E-09  5.0000E-09  5.0000E-09  2.0000E-09  1.0000E-09   0.000    
  15    0.000       0.000      8.0000E-09  8.0000E-09  8.0000E-09  8.0000E-09   0.000       0.000       0.000       0.000    

USING ET RATE FROM PREVIOUS STRESS PERIOD. CURRENT PERIOD IS:      12

 USING ET EXTINCTION DEPTH FROM PREVIOUS STRESS PERIOD. CURRENT PERIOD IS:      12

 USING EXTINCTION WATER CONTENT FROM PREVIOUS STRESS PERIOD. CURRENT PERIOD IS:      12




 If any subsequent steady-state stress periods, min. and max. stages for each lake will be read in Record 9a.




 REUSING LAKE CONFIGURATION DATA FROM LAST STRESS PERIOD


 LAKE       PRECIP     EVAP     RUNOFF   WITHDRAW   BOTTOM     AREA
----------------------------------------------------------------------
   1     0.000E+00 4.000E-08 0.000E+00  0.000E+00 1.074E+03 2.500E+07




         C               INTERFACE CONDUCTANCES BETWEEN LAKE AND AQUIFER CELLS
   L     O          (IF TYPE = 6, CONDUCTANCE (L^2/T) IS BETWEEN AQUIFER CELL AND OVERLYING LAKE CELL.)
   A     L  L  T    (IF TYPE = 1 TO 4, CONDUCTANCES ARE PER UNIT SATURATED THICKNESS (L/T).)
   Y  R  U  A  Y
   E  O  M  K  P                        LAKEBED      C O N D U C T A N C E S
   R  W  N  E  E     DELTA Y   DELTA X  LEAKANCE   LAKEBED   AQUIFER  COMBINED
 _______________________________________________________________________________
   1  4  4  1  2    5.00E+03  5.00E+03  5.00E-02  2.50E+02  6.00E-03  6.00E-03
   1  3  5  1  3    5.00E+03  5.00E+03  5.00E-02  2.50E+02  1.20E-03  1.20E-03
   2  4  5  1  6    5.00E+03  5.00E+03  5.00E-02  1.25E+06  9.42E+00  9.42E+00
   1  5  5  1  4    5.00E+03  5.00E+03  5.00E-02  2.50E+02  6.00E-03  6.00E-03
   1  4  6  1  1    5.00E+03  5.00E+03  5.00E-02  2.50E+02  6.00E-03  6.00E-03
      LAKE     INFLOWING STREAM SEGMENT
         1                  9

 MAXIMUM NUMBER OF STREAMS INFLOWING TO A LAKE IS    1

      LAKE     OUTFLOWING STREAM SEGMENT
         1                 10

 MAXIMUM NUMBER OF STREAMS OUTFLOWING FROM A LAKE IS    1

 
 SOLVING FOR HEAD 
                                                   Max.-Head-Change                         Max.-Flux-Residual
  Residual-Control   Outer-Iter.   Inner-Iter.     Column Row Layer    Maximum-Head-Change  Column Row Layer    Maximum-Flux-Residual          L2-NORM 
          0                 1           2             3    3     2      -0.9875458850E-01       3    3    2        -0.2653347631E+01      0.8761202099E+01
          0                 2           2             3    3     2       0.9317490166E-02       3    3    2         0.2599631953E+00      0.8612524937E+00
          0                 3           1             3    3     2      -0.5211727968E-03       3    3    2        -0.1509090782E-01      0.5089254758E-01

    ------------------------------------------------
       NWT REQUIRED            3 OUTER ITERATIONS 
       AND A TOTAL OF          5 INNER ITERATIONS.
    ------------------------------------------------

 NO OUTPUT CONTROL FOR STRESS PERIOD   12   TIME STEP    1
 
 SOLVING FOR HEAD 
                                                   Max.-Head-Change                         Max.-Flux-Residual
  Residual-Control   Outer-Iter.   Inner-Iter.     Column Row Layer    Maximum-Head-Change  Column Row Layer    Maximum-Flux-Residual          L2-NORM 
          0                 1           2             3    3     2      -0.9418068127E-01       3    3    2        -0.2527040704E+01      0.8212983678E+01
          0                 2           2             3    3     2       0.8890157287E-02       3    3    2         0.2476742985E+00      0.8083577480E+00
          0                 3           1             3    3     2      -0.4975512372E-03       3    3    2        -0.1438603018E-01      0.4789758099E-01

    ------------------------------------------------
       NWT REQUIRED            3 OUTER ITERATIONS 
       AND A TOTAL OF          5 INNER ITERATIONS.
    ------------------------------------------------

 NO OUTPUT CONTROL FOR STRESS PERIOD   12   TIME STEP    2
 
 SOLVING FOR HEAD 
                                                   Max.-Head-Change                         Max.-Flux-Residual
  Residual-Control   Outer-Iter.   Inner-Iter.     Column Row Layer    Maximum-Head-Change  Column Row Layer    Maximum-Flux-Residual          L2-NORM 
          0                 1           2             3    3     2      -0.9152479630E-01       3    3    2        -0.2453032123E+01      0.7810932092E+01
          0                 2           2             3    3     2       0.8643225344E-02       3    3    2         0.2404770336E+00      0.7552713163E+00
          0                 3           1             3    3     2      -0.4839153966E-03       3    3    2        -0.1397349528E-01      0.4417466666E-01

    ------------------------------------------------
       NWT REQUIRED            3 OUTER ITERATIONS 
       AND A TOTAL OF          5 INNER ITERATIONS.
    ------------------------------------------------

 NO OUTPUT CONTROL FOR STRESS PERIOD   12   TIME STEP    3
 
 SOLVING FOR HEAD 
                                                   Max.-Head-Change                         Max.-Flux-Residual
  Residual-Control   Outer-Iter.   Inner-Iter.     Column Row Layer    Maximum-Head-Change  Column Row Layer    Maximum-Flux-Residual          L2-NORM 
          0                 1           2             3    3     2      -0.8969663269E-01       3    3    2        -0.2401758003E+01      0.7496445657E+01
          0                 2           2             3    3     2       0.8471763922E-02       3    3    2         0.2354885886E+00      0.6964064528E+00
          0                 3           1             3    3     2      -0.4744340736E-03       3    3    2        -0.1368731192E-01      0.3833008603E-01

    ------------------------------------------------
       NWT REQUIRED            3 OUTER ITERATIONS 
       AND A TOTAL OF          5 INNER ITERATIONS.
    ------------------------------------------------

 NO OUTPUT CONTROL FOR STRESS PERIOD   12   TIME STEP    4
 
 SOLVING FOR HEAD 
                                                   Max.-Head-Change                         Max.-Flux-Residual
  Residual-Control   Outer-Iter.   Inner-Iter.     Column Row Layer    Maximum-Head-Change  Column Row Layer    Maximum-Flux-Residual          L2-NORM 
          0                 1           2             7    3     2      -0.1416849451E+00       3    3    2        -0.2721161777E+01      0.7904116691E+01
          0                 2           2             8    4     2       0.1179581747E-01       3    3    2         0.2662360671E+00      0.7059000381E+00
          0                 3           1             8    4     2      -0.6820047941E-03       3    3    2        -0.1542020571E-01      0.3904209727E-01

    ------------------------------------------------
       NWT REQUIRED            3 OUTER ITERATIONS 
       AND A TOTAL OF          5 INNER ITERATIONS.
    ------------------------------------------------

 OUTPUT CONTROL FOR STRESS PERIOD   12   TIME STEP    5
    PRINT BUDGET
    SAVE BUDGET

  HEAD DEP BOUNDS   PERIOD   12   STEP     5
 BOUNDARY      1   LAYER   2   ROW    13   COL     1   RATE   -0.290734    
 BOUNDARY      2   LAYER   2   ROW    14   COL     9   RATE    0.215070    



 STREAM LISTING     PERIOD     12   STEP        5

 LAYER ROW COL. STREAM  RCH.  FLOW INTO     FLOW TO   FLOW OUT OF   OVRLND.     DIRECT     STREAM       STREAM     STREAM     STREAM   STREAMBED  STREAMBED
                SEG.NO.  NO.  STRM. RCH.    AQUIFER    STRM. RCH.    RUNOFF     PRECIP       ET          HEAD       DEPTH      WIDTH   CONDCTNC.   GRADIENT

   2    1    1     1     1    1.1000E+01  5.4857E-01   1.0451E+01  0.000E+00  0.000E+00  0.000E+00  1.09397E+03  9.184E-01  8.802E+00  3.961E-01  4.617E-01
   2    2    2     1     2    1.0451E+01  2.0265E+00   8.4249E+00  0.000E+00  0.000E+00  0.000E+00  1.08894E+03  8.830E-01  8.237E+00  5.766E-01  1.172E+00
   2    3    3     1     3    8.4249E+00  1.6769E+00   6.7480E+00  0.000E+00  0.000E+00  0.000E+00  1.08324E+03  8.215E-01  7.314E+00  4.388E-01  1.274E+00
   2    3    4     1     4    6.7480E+00  1.3651E+00   5.3829E+00  0.000E+00  0.000E+00  0.000E+00  1.07818E+03  7.731E-01  6.519E+00  3.618E-01  1.258E+00
   2    4    5     2     1    0.0000E+00  0.0000E+00   0.0000E+00  0.000E+00  0.000E+00  0.000E+00  1.07193E+03  0.000E+00  1.200E+01  7.800E-01  1.000E+00
   2    5    6     2     2    0.0000E+00  0.0000E+00   0.0000E+00  0.000E+00  0.000E+00  0.000E+00  1.06651E+03  0.000E+00  1.200E+01  6.000E-01  1.000E+00
   2    6    6     2     3    0.0000E+00  0.0000E+00   0.0000E+00  0.000E+00  0.000E+00  0.000E+00  1.06179E+03  0.000E+00  1.200E+01  6.000E-01  1.000E+00
   2    7    6     2     4    0.0000E+00  0.0000E+00   0.0000E+00  0.000E+00  0.000E+00  0.000E+00  1.05708E+03  0.000E+00  1.200E+01  6.000E-01  1.000E+00
   2    8    6     2     5    0.0000E+00  0.0000E+00   0.0000E+00  0.000E+00  0.000E+00  0.000E+00  1.05236E+03  0.000E+00  1.200E+01  6.000E-01  1.000E+00
   2    3    5     3     1    5.3829E+00  2.8252E+00   2.5577E+00  0.000E+00  0.000E+00  0.000E+00  1.07555E+03  1.909E+00  9.636E+00  7.227E-01  1.955E+00
   2    3    6     3     2    2.5577E+00  2.4905E+00   6.7206E-02  0.000E+00  0.000E+00  0.000E+00  1.07264E+03  1.727E+00  8.909E+00  6.682E-01  1.864E+00
   2    3    7     3     3    6.7206E-02  6.7206E-02   0.0000E+00  0.000E+00  0.000E+00  0.000E+00  1.06987E+03  0.000E+00  8.218E+00  5.547E-01  1.777E+00
   2    4    8     3     4    0.0000E+00  0.0000E+00   0.0000E+00  0.000E+00  0.000E+00  0.000E+00  1.06545E+03  0.000E+00  7.455E+00  6.709E-01  1.000E+00
   2    5    8     3     5    0.0000E+00  0.0000E+00   0.0000E+00  0.000E+00  0.000E+00  0.000E+00  1.06245E+03  0.000E+00  6.655E+00  4.991E-01  1.000E+00
   2    6    8     3     6    0.0000E+00  0.0000E+00   0.0000E+00  0.000E+00  0.000E+00  0.000E+00  1.06055E+03  0.000E+00  6.145E+00  1.844E-01  1.000E+00
   2    5   10     4     1    1.0000E+01  9.0525E-01   9.0947E+00  0.000E+00  0.000E+00  0.000E+00  1.07835E+03  6.210E-01  1.000E+01  2.500E-01  1.207E+00
   2    5    9     4     2    9.0947E+00  1.7835E+00   7.3113E+00  0.000E+00  0.000E+00  0.000E+00  1.07148E+03  5.670E-01  1.000E+01  5.000E-01  1.189E+00
   2    6    8     4     3    7.3113E+00  1.2257E+00   6.0855E+00  0.000E+00  0.000E+00  0.000E+00  1.06368E+03  5.021E-01  1.000E+01  3.500E-01  1.167E+00
   2    6    8     5     1    6.0855E+00  1.4716E+00   4.6139E+00  0.000E+00  0.000E+00  0.000E+00  1.05854E+03  5.396E-01  1.039E+01  4.158E-01  1.180E+00
   2    7    7     5     2    4.6139E+00  1.4897E+00   3.1242E+00  0.000E+00  0.000E+00  0.000E+00  1.05398E+03  4.817E-01  8.557E+00  4.279E-01  1.161E+00
   2    8    7     5     3    3.1242E+00  8.2855E-01   2.2957E+00  0.000E+00  0.000E+00  0.000E+00  1.04968E+03  4.253E-01  6.911E+00  2.419E-01  1.142E+00
   2    8    6     5     4    2.2957E+00  4.9455E-01   1.8011E+00  0.000E+00  0.000E+00  0.000E+00  1.04664E+03  3.856E-01  5.843E+00  1.461E-01  1.129E+00
   2    9    6     6     1    1.8011E+00  1.8011E+00   0.0000E+00  0.000E+00  0.000E+00  0.000E+00  1.04278E+03  5.669E-02  1.200E+01  6.000E-01  1.019E+00
   2   10    7     6     2    0.0000E+00  0.0000E+00   0.0000E+00  0.000E+00  0.000E+00  0.000E+00  1.03818E+03  0.000E+00  1.200E+01  6.000E-01  1.000E+00
   2   11    7     6     3    0.0000E+00  0.0000E+00   0.0000E+00  0.000E+00  0.000E+00  0.000E+00  1.03364E+03  0.000E+00  1.200E+01  6.000E-01  7.779E-01
   2   12    7     6     4    0.0000E+00  0.0000E+00   0.0000E+00  0.000E+00  0.000E+00  0.000E+00  1.02909E+03  0.000E+00  1.200E+01  6.000E-01  3.478E-02
   2   13    7     6     5    0.0000E+00 -7.8112E-01   7.8112E-01  0.000E+00  0.000E+00  0.000E+00  1.02601E+03  1.007E-01  1.200E+01  2.400E-01 -1.085E+00
   2   14    9     7     1    1.5000E+02  2.9291E+00   1.4707E+02  0.000E+00  0.000E+00  0.000E+00  1.03986E+03  2.283E+00  5.528E+01  5.591E+00  1.746E-01
   2   13    8     7     2    1.4707E+02  3.7374E+00   1.4333E+02  0.000E+00  0.000E+00  0.000E+00  1.03477E+03  2.266E+00  5.520E+01  6.140E+00  2.029E-01
   2   13    7     7     3    1.4333E+02  2.2545E+00   1.4108E+02  0.000E+00  0.000E+00  0.000E+00  1.02967E+03  2.250E+00  5.512E+01  5.574E+00  1.348E-01
   2   13    6     8     1    1.4186E+02  1.7127E-01   1.4170E+02  9.601E-03  0.000E+00  0.000E+00  1.02463E+03  2.758E+00  3.999E+01  4.075E+00  1.401E-02
   2   13    5     8     2    1.4170E+02 -2.9782E+00   1.4469E+02  9.601E-03  0.000E+00  0.000E+00  1.01839E+03  2.768E+00  4.014E+01  4.090E+00 -2.427E-01
   2   13    4     8     3    1.4469E+02 -5.7435E+00   1.5044E+02  9.601E-03  0.000E+00  0.000E+00  1.01217E+03  2.800E+00  4.059E+01  4.137E+00 -4.628E-01
   2   13    3     8     4    1.5044E+02 -6.1300E+00   1.5658E+02  9.601E-03  0.000E+00  0.000E+00  1.00597E+03  2.841E+00  4.120E+01  4.198E+00 -4.867E-01
   2   13    2     8     5    1.5658E+02 -3.5684E+00   1.6016E+02  9.601E-03  0.000E+00  0.000E+00  9.99750E+02  2.875E+00  4.168E+01  4.248E+00 -2.800E-01
   2   13    1     8     6    1.6016E+02 -2.2617E+00   1.6242E+02  5.761E-03  0.000E+00  0.000E+00  9.94770E+02  2.895E+00  4.197E+01  2.566E+00 -2.938E-01
   2    4    5     9     1    0.0000E+00  0.0000E+00   0.0000E+00  0.000E+00  0.000E+00  0.000E+00  1.06000E+03  0.000E+00  2.000E+01  2.000E-03  8.300E-02
   2    4    5    10     1    0.0000E+00  0.0000E+00   0.0000E+00  0.000E+00  0.000E+00  0.000E+00  1.08000E+03  0.000E+00  2.000E+01  2.000E-03  1.000E+00





     0  LAKE CELLS ARE DRY.

 PERIOD    12     TIME STEP     5     TIME STEP LENGTH  1.7520E+05
 PERIOD TIME  8.7600E+05     TOTAL SIMULATION TIME  2.9784E+07


                 HYDROLOGIC BUDGET SUMMARIES FOR SIMULATED LAKES
     (ALL FLUID FLUXES ARE VOLUMES ADDED TO THE LAKE DURING PRESENT TIME STEP)
     ----------------------------------------------------------------------------------------
 LAKE    STAGE         VOLUME     VOL. CHANGE      PRECIP     EVAPORATION    SPECIFIED RUNOFF     COMPUTED RUNOFF    TOTAL RUNOFF
   1  1.074502E+03  2.728279E+02 -3.944006E+01  0.000000E+00  3.012267E+01   0.000000E+00          0.000000E+00      0.000000E+00

            GROUND WATER            SURFACE WATER        WATER          UZF INFIL.
 LAKE    INFLOW     OUTFLOW      INFLOW     OUTFLOW       USE        FROM LAKE
   1  0.0000E+00  0.0000E+00  0.0000E+00  0.0000E+00  0.0000E+00       9.3174E+00

      CONNECTED LAKE   TIME-STEP         STAGE-CHANGE          PERCENT
 LAKE    INFLUX      SURFACE AREA   TIME STEP  CUMULATIVE    DISCREPANCY
   1   0.0000E+00     4.2983E+03  -2.0096E-04  1.6301E-03      -0.000
 --------------------------------------------------------------------------------



            CUMULATIVE HYDROLOGIC BUDGET SUMMARIES FOR SIMULATED LAKES
     (ALL FLUID FLUXES ARE SUMS OF VOLUMES ADDED TO THE LAKE SINCE INITIAL TIME)
     ---------------------------------------------------------------------------
 LAKE       PRECIP       EVAP     SPECIFIED RUNOFF   COMPUTED RUNOFF   TOTAL RUNOFF
   1     0.0000E+00  1.6137E+06       0.0000E+00       0.0000E+00       0.0000E+00

            GROUND WATER            SURFACE WATER       UZF INFIL.
 LAKE    INFLOW     OUTFLOW      INFLOW     OUTFLOW     FROM LAKE
   1  0.0000E+00  0.0000E+00  1.9325E+08  4.8782E+07    1.4292E+08

         WATER    CONNECTED LAKE   CHANGE       PERCENT
 LAKE     USE         INFLUX       IN VOL.    DISCREPANCY
   1   0.0000E+00   0.0000E+00   2.7283E+02     -0.032
 --------------------------------------------------------------------------------

 UBDSV3 SAVING "           GW ET" ON UNIT  61 AT TIME STEP     5, STRESS PERIOD  12
 UBDSV3 SAVING "    UZF RECHARGE" ON UNIT  61 AT TIME STEP     5, STRESS PERIOD  12
 UBDSV3 SAVING " SURFACE LEAKAGE" ON UNIT  61 AT TIME STEP     5, STRESS PERIOD  12
 UBDSV3 SAVING "       HORT+DUNN" ON UNIT  61 AT TIME STEP     5, STRESS PERIOD  12
 UBDSV3 SAVING "  STORAGE CHANGE" ON UNIT  61 AT TIME STEP     5, STRESS PERIOD  12


UNSATURATED ZONE PACKAGE VOLUMETRIC BUDGET FOR  TIME STEP     5 STRESS PERIOD   12
  ------------------------------------------------------------------------------



     CUMULATIVE VOLUMES      L**3       RATES FOR THIS TIME STEP      L**3/T
     ------------------                 ------------------------

           IN:                                      IN:
           ---                                      ---
        INFILTRATION =  1637310066.8375          INFILTRATION =           8.4469

          OUT:                                     OUT:
          ----                                     ----
              UZF ET =  1556699609.6730                UZF ET =           8.4452
        UZF RECHARGE =   731031878.1119          UZF RECHARGE =           3.4369

            IN - OUT =  -650421420.9473              IN - OUT =          -3.4352

          STORAGE:                                 STORAGE:
          --------                                 --------
      STORAGE CHANGE =  -650437319.1133        STORAGE CHANGE =          -3.4352

 PERCENT DISCREPANCY IS DIFFERENCE BETWEEN IN-OUT MINUS CHANGE IN STORAGE
 DIVIDED BY THE AVERAGE OF IN AND OUT TIMES 100

 PERCENT DISCREPANCY =           0.00     PERCENT DISCREPANCY =           0.00






1
  VOLUMETRIC BUDGET FOR ENTIRE MODEL AT END OF TIME STEP    5, STRESS PERIOD  12
  ------------------------------------------------------------------------------

     CUMULATIVE VOLUMES      L**3       RATES FOR THIS TIME STEP      L**3/T
     ------------------                 ------------------------

           IN:                                      IN:
           ---                                      ---
             STORAGE =   324654976.0000               STORAGE =          27.5845
       CONSTANT HEAD =           0.0000         CONSTANT HEAD =           0.0000
               WELLS =           0.0000                 WELLS =           0.0000
     HEAD DEP BOUNDS =     6390790.0000       HEAD DEP BOUNDS =           0.2151
      STREAM LEAKAGE =  2117683456.0000        STREAM LEAKAGE =          30.0922
       LAKE  SEEPAGE =           0.0000         LAKE  SEEPAGE =           0.0000
        UZF RECHARGE =   731031808.0000          UZF RECHARGE =           3.4369
               GW ET =           0.0000                 GW ET =           0.0000
     SURFACE LEAKAGE =           0.0000       SURFACE LEAKAGE =           0.0000

            TOTAL IN =  3179760896.0000              TOTAL IN =          61.3288

          OUT:                                     OUT:
          ----                                     ----
             STORAGE =  1761053312.0000               STORAGE =          20.6618
       CONSTANT HEAD =           0.0000         CONSTANT HEAD =           0.0000
               WELLS =   394200000.0000                 WELLS =           0.0000
     HEAD DEP BOUNDS =     9036494.0000       HEAD DEP BOUNDS =           0.2907
      STREAM LEAKAGE =   555384768.0000        STREAM LEAKAGE =          21.4630
       LAKE  SEEPAGE =           0.0000         LAKE  SEEPAGE =           0.0000
        UZF RECHARGE =           0.0000          UZF RECHARGE =           0.0000
               GW ET =   457318048.0000                 GW ET =          18.8604
     SURFACE LEAKAGE =    88844832.0000       SURFACE LEAKAGE =       5.0614E-02

           TOTAL OUT =  3265837568.0000             TOTAL OUT =          61.3265

            IN - OUT =   -86076672.0000              IN - OUT =       2.2278E-03

 PERCENT DISCREPANCY =          -2.67     PERCENT DISCREPANCY =           0.00






         TIME SUMMARY AT END OF TIME STEP    5 IN STRESS PERIOD   12
                    SECONDS     MINUTES      HOURS       DAYS        YEARS
                    -----------------------------------------------------------
   TIME STEP LENGTH 1.75200E+05  2920.0      48.667      2.0278     5.55175E-03
 STRESS PERIOD TIME 8.76000E+05  14600.      243.33      10.139     2.77588E-02
         TOTAL TIME 2.97840E+07 4.96400E+05  8273.3      344.72     0.94380    
1
 
 SOLVING FOR HEAD 
                                                   Max.-Head-Change                         Max.-Flux-Residual
  Residual-Control   Outer-Iter.   Inner-Iter.     Column Row Layer    Maximum-Head-Change  Column Row Layer    Maximum-Flux-Residual          L2-NORM 
          0                 1           2             7    3     2      -0.1380018408E+00       3    3    2        -0.2642721132E+01      0.7603509004E+01
          0                 2           2             8    4     2       0.1128690770E-01       3    3    2         0.2586159980E+00      0.6787818261E+00
          0                 3           1             8    4     2      -0.6524755226E-03       3    3    2        -0.1498434029E-01      0.3753118305E-01

    ------------------------------------------------
       NWT REQUIRED            3 OUTER ITERATIONS 
       AND A TOTAL OF          5 INNER ITERATIONS.
    ------------------------------------------------

 NO OUTPUT CONTROL FOR STRESS PERIOD   12   TIME STEP    6
 
 SOLVING FOR HEAD 
                                                   Max.-Head-Change                         Max.-Flux-Residual
  Residual-Control   Outer-Iter.   Inner-Iter.     Column Row Layer    Maximum-Head-Change  Column Row Layer    Maximum-Flux-Residual          L2-NORM 
          0                 1           2             7    3     2      -0.1344865598E+00       3    3    2        -0.2569166618E+01      0.7332295177E+01
          0                 2           2             8    4     2       0.1080705007E-01       3    3    2         0.2514704593E+00      0.6543737774E+00
          0                 3           1             8    4     2      -0.6248297094E-03       3    3    2        -0.1457546371E-01      0.3618170676E-01

    ------------------------------------------------
       NWT REQUIRED            3 OUTER ITERATIONS 
       AND A TOTAL OF          5 INNER ITERATIONS.
    ------------------------------------------------

 NO OUTPUT CONTROL FOR STRESS PERIOD   12   TIME STEP    7
 
 SOLVING FOR HEAD 
                                                   Max.-Head-Change                         Max.-Flux-Residual
  Residual-Control   Outer-Iter.   Inner-Iter.     Column Row Layer    Maximum-Head-Change  Column Row Layer    Maximum-Flux-Residual          L2-NORM 
          0                 1           2             7    3     2      -0.1316792559E+00       3    3    2        -0.2517774237E+01      0.7112926654E+01
          0                 2           2             7    3     2       0.1265297762E-01       3    3    2         0.2464809958E+00      0.6297863516E+00
          0                 3           1             7    3     2      -0.7290216788E-03       3    3    2        -0.1429023416E-01      0.3457818222E-01

    ------------------------------------------------
       NWT REQUIRED            3 OUTER ITERATIONS 
       AND A TOTAL OF          5 INNER ITERATIONS.
    ------------------------------------------------

 NO OUTPUT CONTROL FOR STRESS PERIOD   12   TIME STEP    8
 
 SOLVING FOR HEAD 
                                                   Max.-Head-Change                         Max.-Flux-Residual
  Residual-Control   Outer-Iter.   Inner-Iter.     Column Row Layer    Maximum-Head-Change  Column Row Layer    Maximum-Flux-Residual          L2-NORM 
          0                 1           2             6    3     2      -0.1693303955E+00       3    3    2        -0.2746817737E+01      0.7530906914E+01
          0                 2           2             6    3     2       0.1410640751E-01       3    3    2         0.2692331848E+00      0.6675102047E+00
          0                 3           1             7    3     2      -0.7091185000E-03       3    3    2        -0.1563909793E-01      0.3606550617E-01

    ------------------------------------------------
       NWT REQUIRED            3 OUTER ITERATIONS 
       AND A TOTAL OF          5 INNER ITERATIONS.
    ------------------------------------------------

 NO OUTPUT CONTROL FOR STRESS PERIOD   12   TIME STEP    9
 
 SOLVING FOR HEAD 
                                                   Max.-Head-Change                         Max.-Flux-Residual
  Residual-Control   Outer-Iter.   Inner-Iter.     Column Row Layer    Maximum-Head-Change  Column Row Layer    Maximum-Flux-Residual          L2-NORM 
          0                 1           2             6    3     2      -0.1649474909E+00       3    3    2        -0.2671595843E+01      0.7315307048E+01
          0                 2           2             6    3     2       0.1376648805E-01       3    3    2         0.2618961890E+00      0.6451634776E+00
          0                 3           1             7    3     2      -0.6903064699E-03       3    3    2        -0.1521723073E-01      0.3509776392E-01

    ------------------------------------------------
       NWT REQUIRED            3 OUTER ITERATIONS 
       AND A TOTAL OF          5 INNER ITERATIONS.
    ------------------------------------------------

 OUTPUT CONTROL FOR STRESS PERIOD   12   TIME STEP   10
    PRINT BUDGET
    SAVE BUDGET

  HEAD DEP BOUNDS   PERIOD   12   STEP    10
 BOUNDARY      1   LAYER   2   ROW    13   COL     1   RATE   -0.290184    
 BOUNDARY      2   LAYER   2   ROW    14   COL     9   RATE    0.215111    



 STREAM LISTING     PERIOD     12   STEP       10

 LAYER ROW COL. STREAM  RCH.  FLOW INTO     FLOW TO   FLOW OUT OF   OVRLND.     DIRECT     STREAM       STREAM     STREAM     STREAM   STREAMBED  STREAMBED
                SEG.NO.  NO.  STRM. RCH.    AQUIFER    STRM. RCH.    RUNOFF     PRECIP       ET          HEAD       DEPTH      WIDTH   CONDCTNC.   GRADIENT

   2    1    1     1     1    8.0000E+00  4.8504E-01   7.5150E+00  0.000E+00  0.000E+00  0.000E+00  1.09388E+03  8.276E-01  7.403E+00  3.331E-01  4.853E-01
   2    2    2     1     2    7.5150E+00  1.7648E+00   5.7501E+00  0.000E+00  0.000E+00  0.000E+00  1.08885E+03  7.898E-01  6.815E+00  4.770E-01  1.233E+00
   2    3    3     1     3    5.7501E+00  1.3398E+00   4.4103E+00  0.000E+00  0.000E+00  0.000E+00  1.08316E+03  7.411E-01  5.969E+00  3.581E-01  1.247E+00
   2    3    4     1     4    4.4103E+00  1.0744E+00   3.3359E+00  0.000E+00  0.000E+00  0.000E+00  1.07810E+03  6.922E-01  5.243E+00  2.910E-01  1.231E+00
   2    4    5     2     1    0.0000E+00  0.0000E+00   0.0000E+00  0.000E+00  0.000E+00  0.000E+00  1.07193E+03  0.000E+00  1.200E+01  7.800E-01  1.000E+00
   2    5    6     2     2    0.0000E+00  0.0000E+00   0.0000E+00  0.000E+00  0.000E+00  0.000E+00  1.06651E+03  0.000E+00  1.200E+01  6.000E-01  1.000E+00
   2    6    6     2     3    0.0000E+00  0.0000E+00   0.0000E+00  0.000E+00  0.000E+00  0.000E+00  1.06179E+03  0.000E+00  1.200E+01  6.000E-01  1.000E+00
   2    7    6     2     4    0.0000E+00  0.0000E+00   0.0000E+00  0.000E+00  0.000E+00  0.000E+00  1.05708E+03  0.000E+00  1.200E+01  6.000E-01  1.000E+00
   2    8    6     2     5    0.0000E+00  0.0000E+00   0.0000E+00  0.000E+00  0.000E+00  0.000E+00  1.05236E+03  0.000E+00  1.200E+01  6.000E-01  1.000E+00
   2    3    5     3     1    3.3359E+00  2.8252E+00   5.1072E-01  0.000E+00  0.000E+00  0.000E+00  1.07555E+03  1.909E+00  9.636E+00  7.227E-01  1.955E+00
   2    3    6     3     2    5.1072E-01  5.1072E-01   0.0000E+00  0.000E+00  0.000E+00  0.000E+00  1.07264E+03  0.000E+00  8.909E+00  6.682E-01  1.864E+00
   2    3    7     3     3    0.0000E+00  0.0000E+00   0.0000E+00  0.000E+00  0.000E+00  0.000E+00  1.06832E+03  0.000E+00  8.218E+00  5.547E-01  1.000E+00
   2    4    8     3     4    0.0000E+00  0.0000E+00   0.0000E+00  0.000E+00  0.000E+00  0.000E+00  1.06545E+03  0.000E+00  7.455E+00  6.709E-01  1.000E+00
   2    5    8     3     5    0.0000E+00  0.0000E+00   0.0000E+00  0.000E+00  0.000E+00  0.000E+00  1.06245E+03  0.000E+00  6.655E+00  4.991E-01  1.000E+00
   2    6    8     3     6    0.0000E+00  0.0000E+00   0.0000E+00  0.000E+00  0.000E+00  0.000E+00  1.06055E+03  0.000E+00  6.145E+00  1.844E-01  1.000E+00
   2    5   10     4     1    1.0000E+01  9.0525E-01   9.0947E+00  0.000E+00  0.000E+00  0.000E+00  1.07835E+03  6.210E-01  1.000E+01  2.500E-01  1.207E+00
   2    5    9     4     2    9.0947E+00  1.7835E+00   7.3113E+00  0.000E+00  0.000E+00  0.000E+00  1.07148E+03  5.670E-01  1.000E+01  5.000E-01  1.189E+00
   2    6    8     4     3    7.3113E+00  1.2257E+00   6.0855E+00  0.000E+00  0.000E+00  0.000E+00  1.06368E+03  5.021E-01  1.000E+01  3.500E-01  1.167E+00
   2    6    8     5     1    6.0855E+00  1.4716E+00   4.6139E+00  0.000E+00  0.000E+00  0.000E+00  1.05854E+03  5.396E-01  1.039E+01  4.158E-01  1.180E+00
   2    7    7     5     2    4.6139E+00  1.4897E+00   3.1242E+00  0.000E+00  0.000E+00  0.000E+00  1.05398E+03  4.817E-01  8.557E+00  4.279E-01  1.161E+00
   2    8    7     5     3    3.1242E+00  8.2855E-01   2.2957E+00  0.000E+00  0.000E+00  0.000E+00  1.04968E+03  4.253E-01  6.911E+00  2.419E-01  1.142E+00
   2    8    6     5     4    2.2957E+00  4.9455E-01   1.8011E+00  0.000E+00  0.000E+00  0.000E+00  1.04664E+03  3.856E-01  5.843E+00  1.461E-01  1.129E+00
   2    9    6     6     1    1.8011E+00  1.8011E+00   0.0000E+00  0.000E+00  0.000E+00  0.000E+00  1.04278E+03  5.669E-02  1.200E+01  6.000E-01  1.019E+00
   2   10    7     6     2    0.0000E+00  0.0000E+00   0.0000E+00  0.000E+00  0.000E+00  0.000E+00  1.03818E+03  0.000E+00  1.200E+01  6.000E-01  1.000E+00
   2   11    7     6     3    0.0000E+00  0.0000E+00   0.0000E+00  0.000E+00  0.000E+00  0.000E+00  1.03364E+03  0.000E+00  1.200E+01  6.000E-01  8.203E-01
   2   12    7     6     4    0.0000E+00  0.0000E+00   0.0000E+00  0.000E+00  0.000E+00  0.000E+00  1.02909E+03  0.000E+00  1.200E+01  6.000E-01  6.193E-02
   2   13    7     6     5    0.0000E+00 -7.7771E-01   7.7771E-01  0.000E+00  0.000E+00  0.000E+00  1.02601E+03  1.004E-01  1.200E+01  2.400E-01 -1.080E+00
   2   14    9     7     1    1.5000E+02  2.9350E+00   1.4707E+02  0.000E+00  0.000E+00  0.000E+00  1.03986E+03  2.283E+00  5.528E+01  5.591E+00  1.750E-01
   2   13    8     7     2    1.4707E+02  3.7561E+00   1.4331E+02  0.000E+00  0.000E+00  0.000E+00  1.03477E+03  2.266E+00  5.520E+01  6.140E+00  2.039E-01
   2   13    7     7     3    1.4331E+02  2.3333E+00   1.4098E+02  0.000E+00  0.000E+00  0.000E+00  1.02967E+03  2.249E+00  5.512E+01  5.574E+00  1.395E-01
   2   13    6     8     1    1.4175E+02  2.3270E-01   1.4153E+02  8.736E-03  0.000E+00  0.000E+00  1.02463E+03  2.757E+00  3.998E+01  4.074E+00  1.904E-02
   2   13    5     8     2    1.4153E+02 -2.9509E+00   1.4449E+02  8.736E-03  0.000E+00  0.000E+00  1.01839E+03  2.767E+00  4.012E+01  4.088E+00 -2.406E-01
   2   13    4     8     3    1.4449E+02 -5.7342E+00   1.5023E+02  8.736E-03  0.000E+00  0.000E+00  1.01217E+03  2.798E+00  4.057E+01  4.135E+00 -4.623E-01
   2   13    3     8     4    1.5023E+02 -6.1195E+00   1.5636E+02  8.736E-03  0.000E+00  0.000E+00  1.00596E+03  2.840E+00  4.118E+01  4.196E+00 -4.861E-01
   2   13    2     8     5    1.5636E+02 -3.5445E+00   1.5991E+02  8.736E-03  0.000E+00  0.000E+00  9.99748E+02  2.873E+00  4.166E+01  4.245E+00 -2.783E-01
   2   13    1     8     6    1.5991E+02 -2.2277E+00   1.6215E+02  5.242E-03  0.000E+00  0.000E+00  9.94768E+02  2.893E+00  4.195E+01  2.565E+00 -2.895E-01
   2    4    5     9     1    0.0000E+00  0.0000E+00   0.0000E+00  0.000E+00  0.000E+00  0.000E+00  1.06000E+03  0.000E+00  2.000E+01  2.000E-03  1.641E-01
   2    4    5    10     1    0.0000E+00  0.0000E+00   0.0000E+00  0.000E+00  0.000E+00  0.000E+00  1.08000E+03  0.000E+00  2.000E+01  2.000E-03  1.000E+00





     0  LAKE CELLS ARE DRY.

 PERIOD    12     TIME STEP    10     TIME STEP LENGTH  1.7520E+05
 PERIOD TIME  1.7520E+06     TOTAL SIMULATION TIME  3.0660E+07


                 HYDROLOGIC BUDGET SUMMARIES FOR SIMULATED LAKES
     (ALL FLUID FLUXES ARE VOLUMES ADDED TO THE LAKE DURING PRESENT TIME STEP)
     ----------------------------------------------------------------------------------------
 LAKE    STAGE         VOLUME     VOL. CHANGE      PRECIP     EVAPORATION    SPECIFIED RUNOFF     COMPUTED RUNOFF    TOTAL RUNOFF
   1  1.074501E+03  1.455102E+02 -1.869777E+01  0.000000E+00  1.606565E+01   0.000000E+00          0.000000E+00      0.000000E+00

            GROUND WATER            SURFACE WATER        WATER          UZF INFIL.
 LAKE    INFLOW     OUTFLOW      INFLOW     OUTFLOW       USE        FROM LAKE
   1  0.0000E+00  0.0000E+00  0.0000E+00  0.0000E+00  0.0000E+00       2.6321E+00

      CONNECTED LAKE   TIME-STEP         STAGE-CHANGE          PERCENT
 LAKE    INFLUX      SURFACE AREA   TIME STEP  CUMULATIVE    DISCREPANCY
   1   0.0000E+00     2.2925E+03  -1.0717E-04  8.6940E-04      -0.000
 --------------------------------------------------------------------------------



            CUMULATIVE HYDROLOGIC BUDGET SUMMARIES FOR SIMULATED LAKES
     (ALL FLUID FLUXES ARE SUMS OF VOLUMES ADDED TO THE LAKE SINCE INITIAL TIME)
     ---------------------------------------------------------------------------
 LAKE       PRECIP       EVAP     SPECIFIED RUNOFF   COMPUTED RUNOFF   TOTAL RUNOFF
   1     0.0000E+00  1.6138E+06       0.0000E+00       0.0000E+00       0.0000E+00

            GROUND WATER            SURFACE WATER       UZF INFIL.
 LAKE    INFLOW     OUTFLOW      INFLOW     OUTFLOW     FROM LAKE
   1  0.0000E+00  0.0000E+00  1.9325E+08  4.8782E+07    1.4292E+08

         WATER    CONNECTED LAKE   CHANGE       PERCENT
 LAKE     USE         INFLUX       IN VOL.    DISCREPANCY
   1   0.0000E+00   0.0000E+00   1.4551E+02     -0.032
 --------------------------------------------------------------------------------

 UBDSV3 SAVING "           GW ET" ON UNIT  61 AT TIME STEP    10, STRESS PERIOD  12
 UBDSV3 SAVING "    UZF RECHARGE" ON UNIT  61 AT TIME STEP    10, STRESS PERIOD  12
 UBDSV3 SAVING " SURFACE LEAKAGE" ON UNIT  61 AT TIME STEP    10, STRESS PERIOD  12
 UBDSV3 SAVING "       HORT+DUNN" ON UNIT  61 AT TIME STEP    10, STRESS PERIOD  12
 UBDSV3 SAVING "  STORAGE CHANGE" ON UNIT  61 AT TIME STEP    10, STRESS PERIOD  12


UNSATURATED ZONE PACKAGE VOLUMETRIC BUDGET FOR  TIME STEP    10 STRESS PERIOD   12
  ------------------------------------------------------------------------------



     CUMULATIVE VOLUMES      L**3       RATES FOR THIS TIME STEP      L**3/T
     ------------------                 ------------------------

           IN:                                      IN:
           ---                                      ---
        INFILTRATION =  1644709612.1650          INFILTRATION =           8.4470

          OUT:                                     OUT:
          ----                                     ----
              UZF ET =  1564003919.4535                UZF ET =           8.3386
        UZF RECHARGE =   733948694.6697          UZF RECHARGE =           3.3033

            IN - OUT =  -653243001.9582              IN - OUT =          -3.1949

          STORAGE:                                 STORAGE:
          --------                                 --------
      STORAGE CHANGE =  -653262437.8044        STORAGE CHANGE =          -3.1939

 PERCENT DISCREPANCY IS DIFFERENCE BETWEEN IN-OUT MINUS CHANGE IN STORAGE
 DIVIDED BY THE AVERAGE OF IN AND OUT TIMES 100

 PERCENT DISCREPANCY =           0.00     PERCENT DISCREPANCY =          -0.01






1
  VOLUMETRIC BUDGET FOR ENTIRE MODEL AT END OF TIME STEP   10, STRESS PERIOD  12
  ------------------------------------------------------------------------------

     CUMULATIVE VOLUMES      L**3       RATES FOR THIS TIME STEP      L**3/T
     ------------------                 ------------------------

           IN:                                      IN:
           ---                                      ---
             STORAGE =   347981120.0000               STORAGE =          27.0850
       CONSTANT HEAD =           0.0000         CONSTANT HEAD =           0.0000
               WELLS =           0.0000                 WELLS =           0.0000
     HEAD DEP BOUNDS =     6579214.5000       HEAD DEP BOUNDS =           0.2151
      STREAM LEAKAGE =  2143054976.0000        STREAM LEAKAGE =          27.2570
       LAKE  SEEPAGE =           0.0000         LAKE  SEEPAGE =           0.0000
        UZF RECHARGE =   733948672.0000          UZF RECHARGE =           3.3033
               GW ET =           0.0000                 GW ET =           0.0000
     SURFACE LEAKAGE =           0.0000       SURFACE LEAKAGE =           0.0000

            TOTAL IN =  3231564032.0000              TOTAL IN =          57.8604

          OUT:                                     OUT:
          ----                                     ----
             STORAGE =  1777421568.0000               STORAGE =          17.5624
       CONSTANT HEAD =           0.0000         CONSTANT HEAD =           0.0000
               WELLS =   394200000.0000                 WELLS =           0.0000
     HEAD DEP BOUNDS =     9290871.0000       HEAD DEP BOUNDS =           0.2902
      STREAM LEAKAGE =   574125952.0000        STREAM LEAKAGE =          21.3545
       LAKE  SEEPAGE =           0.0000         LAKE  SEEPAGE =           0.0000
        UZF RECHARGE =           0.0000          UZF RECHARGE =           0.0000
               GW ET =   473713216.0000                 GW ET =          18.6044
     SURFACE LEAKAGE =    88886544.0000       SURFACE LEAKAGE =       4.5921E-02

           TOTAL OUT =  3317637888.0000             TOTAL OUT =          57.8574

            IN - OUT =   -86073856.0000              IN - OUT =       2.9640E-03

 PERCENT DISCREPANCY =          -2.63     PERCENT DISCREPANCY =           0.01






         TIME SUMMARY AT END OF TIME STEP   10 IN STRESS PERIOD   12
                    SECONDS     MINUTES      HOURS       DAYS        YEARS
                    -----------------------------------------------------------
   TIME STEP LENGTH 1.75200E+05  2920.0      48.667      2.0278     5.55175E-03
 STRESS PERIOD TIME 1.75200E+06  29200.      486.67      20.278     5.55175E-02
         TOTAL TIME 3.06600E+07 5.11000E+05  8516.7      354.86     0.97156    
1
 
 SOLVING FOR HEAD 
                                                   Max.-Head-Change                         Max.-Flux-Residual
  Residual-Control   Outer-Iter.   Inner-Iter.     Column Row Layer    Maximum-Head-Change  Column Row Layer    Maximum-Flux-Residual          L2-NORM 
          0                 1           2             6    3     2      -0.1607526304E+00       3    3    2        -0.2600907595E+01      0.7114840117E+01
          0                 2           2             6    3     2       0.1343887727E-01       3    3    2         0.2550001296E+00      0.6288822525E+00
          0                 3           1             7    3     2      -0.6723179738E-03       3    3    2        -0.1481952566E-01      0.3427734404E-01

    ------------------------------------------------
       NWT REQUIRED            3 OUTER ITERATIONS 
       AND A TOTAL OF          5 INNER ITERATIONS.
    ------------------------------------------------

 NO OUTPUT CONTROL FOR STRESS PERIOD   12   TIME STEP   11
 
 SOLVING FOR HEAD 
                                                   Max.-Head-Change                         Max.-Flux-Residual
  Residual-Control   Outer-Iter.   Inner-Iter.     Column Row Layer    Maximum-Head-Change  Column Row Layer    Maximum-Flux-Residual          L2-NORM 
          0                 1           2             6    3     2      -0.1928861265E+00       3    3    2        -0.2777382423E+01      0.7504253995E+01
          0                 2           2             6    3     2       0.1856531655E-01       3    3    2         0.2751345564E+00      0.6796169690E+00
          0                 3           2             6    3     2      -0.1072833038E-02       3    3    2        -0.1640374915E-01      0.3857229231E-01
          0                 4           1             6    3     2       0.2230346293E-04       3    3    2         0.3490009763E-03      0.8133153063E-03

    ------------------------------------------------
       NWT REQUIRED            4 OUTER ITERATIONS 
       AND A TOTAL OF          7 INNER ITERATIONS.
    ------------------------------------------------

 NO OUTPUT CONTROL FOR STRESS PERIOD   12   TIME STEP   12
 
 SOLVING FOR HEAD 
                                                   Max.-Head-Change                         Max.-Flux-Residual
  Residual-Control   Outer-Iter.   Inner-Iter.     Column Row Layer    Maximum-Head-Change  Column Row Layer    Maximum-Flux-Residual          L2-NORM 
          0                 1           2             5    3     2      -0.1876637854E+00       3    3    2        -0.2847570300E+01      0.7712164906E+01
          0                 2           2             6    3     2       0.1802248827E-01       3    3    2         0.2835078573E+00      0.7141524230E+00
          0                 3           2             6    3     2      -0.1041502821E-02       3    3    2        -0.1689251156E-01      0.4081384972E-01
          0                 4           1             6    3     2       0.2165093763E-04       3    3    2         0.3580766074E-03      0.8590784184E-03

    ------------------------------------------------
       NWT REQUIRED            4 OUTER ITERATIONS 
       AND A TOTAL OF          7 INNER ITERATIONS.
    ------------------------------------------------

 NO OUTPUT CONTROL FOR STRESS PERIOD   12   TIME STEP   13
 
 SOLVING FOR HEAD 
                                                   Max.-Head-Change                         Max.-Flux-Residual
  Residual-Control   Outer-Iter.   Inner-Iter.     Column Row Layer    Maximum-Head-Change  Column Row Layer    Maximum-Flux-Residual          L2-NORM 
          0                 1           2             6    3     2      -0.1816067913E+00       3    3    2        -0.2770519303E+01      0.7537297519E+01
          0                 2           2             6    3     2       0.1748928395E-01       3    3    2         0.2758294557E+00      0.6995580692E+00
          0                 3           1             6    3     2      -0.1010671989E-02       3    3    2        -0.1643421370E-01      0.4001516615E-01
          0                 4           1             6    3     2       0.2100987414E-04       3    3    2         0.3483451460E-03      0.8426706470E-03

    ------------------------------------------------
       NWT REQUIRED            4 OUTER ITERATIONS 
       AND A TOTAL OF          6 INNER ITERATIONS.
    ------------------------------------------------

 NO OUTPUT CONTROL FOR STRESS PERIOD   12   TIME STEP   14
 
 SOLVING FOR HEAD 
                                                   Max.-Head-Change                         Max.-Flux-Residual
  Residual-Control   Outer-Iter.   Inner-Iter.     Column Row Layer    Maximum-Head-Change  Column Row Layer    Maximum-Flux-Residual          L2-NORM 
          0                 1           2             6    3     2      -0.1762843425E+00       3    3    2        -0.2699525814E+01      0.7373942827E+01
          0                 2           2             6    3     2       0.1697647807E-01       3    3    2         0.2687556888E+00      0.6857758017E+00
          0                 3           1             6    3     2      -0.9810205726E-03       3    3    2        -0.1601213420E-01      0.3926137045E-01

    ------------------------------------------------
       NWT REQUIRED            3 OUTER ITERATIONS 
       AND A TOTAL OF          5 INNER ITERATIONS.
    ------------------------------------------------

 OUTPUT CONTROL FOR STRESS PERIOD   12   TIME STEP   15
    PRINT BUDGET
    PRINT HEAD FOR ALL LAYERS
    SAVE HEAD FOR ALL LAYERS
    SAVE BUDGET

  HEAD DEP BOUNDS   PERIOD   12   STEP    15
 BOUNDARY      1   LAYER   2   ROW    13   COL     1   RATE   -0.289834    
 BOUNDARY      2   LAYER   2   ROW    14   COL     9   RATE    0.215134    



 STREAM LISTING     PERIOD     12   STEP       15

 LAYER ROW COL. STREAM  RCH.  FLOW INTO     FLOW TO   FLOW OUT OF   OVRLND.     DIRECT     STREAM       STREAM     STREAM     STREAM   STREAMBED  STREAMBED
                SEG.NO.  NO.  STRM. RCH.    AQUIFER    STRM. RCH.    RUNOFF     PRECIP       ET          HEAD       DEPTH      WIDTH   CONDCTNC.   GRADIENT

   2    1    1     1     1    4.4000E+00  3.7004E-01   4.0300E+00  0.000E+00  0.000E+00  0.000E+00  1.09376E+03  7.088E-01  5.440E+00  2.448E-01  5.039E-01
   2    2    2     1     2    4.0300E+00  1.2845E+00   2.7455E+00  0.000E+00  0.000E+00  0.000E+00  1.08872E+03  6.607E-01  5.013E+00  3.509E-01  1.220E+00
   2    3    3     1     3    2.7455E+00  9.4079E-01   1.8047E+00  0.000E+00  0.000E+00  0.000E+00  1.08299E+03  5.752E-01  4.386E+00  2.631E-01  1.192E+00
   2    3    4     1     4    1.8047E+00  7.4152E-01   1.0632E+00  0.000E+00  0.000E+00  0.000E+00  1.07788E+03  4.720E-01  3.848E+00  2.136E-01  1.157E+00
   2    4    5     2     1    0.0000E+00  0.0000E+00   0.0000E+00  0.000E+00  0.000E+00  0.000E+00  1.07193E+03  0.000E+00  1.200E+01  7.800E-01  1.000E+00
   2    5    6     2     2    0.0000E+00  0.0000E+00   0.0000E+00  0.000E+00  0.000E+00  0.000E+00  1.06651E+03  0.000E+00  1.200E+01  6.000E-01  1.000E+00
   2    6    6     2     3    0.0000E+00  0.0000E+00   0.0000E+00  0.000E+00  0.000E+00  0.000E+00  1.06179E+03  0.000E+00  1.200E+01  6.000E-01  1.000E+00
   2    7    6     2     4    0.0000E+00  0.0000E+00   0.0000E+00  0.000E+00  0.000E+00  0.000E+00  1.05708E+03  0.000E+00  1.200E+01  6.000E-01  1.000E+00
   2    8    6     2     5    0.0000E+00  0.0000E+00   0.0000E+00  0.000E+00  0.000E+00  0.000E+00  1.05236E+03  0.000E+00  1.200E+01  6.000E-01  1.000E+00
   2    3    5     3     1    1.0632E+00  1.0632E+00   0.0000E+00  0.000E+00  0.000E+00  0.000E+00  1.07555E+03  0.000E+00  9.636E+00  7.227E-01  1.955E+00
   2    3    6     3     2    0.0000E+00  0.0000E+00   0.0000E+00  0.000E+00  0.000E+00  0.000E+00  1.07091E+03  0.000E+00  8.909E+00  6.682E-01  1.000E+00
   2    3    7     3     3    0.0000E+00  0.0000E+00   0.0000E+00  0.000E+00  0.000E+00  0.000E+00  1.06832E+03  0.000E+00  8.218E+00  5.547E-01  1.000E+00
   2    4    8     3     4    0.0000E+00  0.0000E+00   0.0000E+00  0.000E+00  0.000E+00  0.000E+00  1.06545E+03  0.000E+00  7.455E+00  6.709E-01  1.000E+00
   2    5    8     3     5    0.0000E+00  0.0000E+00   0.0000E+00  0.000E+00  0.000E+00  0.000E+00  1.06245E+03  0.000E+00  6.655E+00  4.991E-01  1.000E+00
   2    6    8     3     6    0.0000E+00  0.0000E+00   0.0000E+00  0.000E+00  0.000E+00  0.000E+00  1.06055E+03  0.000E+00  6.145E+00  1.844E-01  1.000E+00
   2    5   10     4     1    1.0000E+01  9.0525E-01   9.0947E+00  0.000E+00  0.000E+00  0.000E+00  1.07835E+03  6.210E-01  1.000E+01  2.500E-01  1.207E+00
   2    5    9     4     2    9.0947E+00  1.7835E+00   7.3113E+00  0.000E+00  0.000E+00  0.000E+00  1.07148E+03  5.670E-01  1.000E+01  5.000E-01  1.189E+00
   2    6    8     4     3    7.3113E+00  1.2257E+00   6.0855E+00  0.000E+00  0.000E+00  0.000E+00  1.06368E+03  5.021E-01  1.000E+01  3.500E-01  1.167E+00
   2    6    8     5     1    6.0855E+00  1.4716E+00   4.6139E+00  0.000E+00  0.000E+00  0.000E+00  1.05854E+03  5.396E-01  1.039E+01  4.158E-01  1.180E+00
   2    7    7     5     2    4.6139E+00  1.4897E+00   3.1242E+00  0.000E+00  0.000E+00  0.000E+00  1.05398E+03  4.817E-01  8.557E+00  4.279E-01  1.161E+00
   2    8    7     5     3    3.1242E+00  8.2855E-01   2.2957E+00  0.000E+00  0.000E+00  0.000E+00  1.04968E+03  4.253E-01  6.911E+00  2.419E-01  1.142E+00
   2    8    6     5     4    2.2957E+00  4.9455E-01   1.8011E+00  0.000E+00  0.000E+00  0.000E+00  1.04664E+03  3.856E-01  5.843E+00  1.461E-01  1.129E+00
   2    9    6     6     1    1.8011E+00  1.8011E+00   0.0000E+00  0.000E+00  0.000E+00  0.000E+00  1.04278E+03  5.669E-02  1.200E+01  6.000E-01  1.019E+00
   2   10    7     6     2    0.0000E+00  0.0000E+00   0.0000E+00  0.000E+00  0.000E+00  0.000E+00  1.03818E+03  0.000E+00  1.200E+01  6.000E-01  1.000E+00
   2   11    7     6     3    0.0000E+00  0.0000E+00   0.0000E+00  0.000E+00  0.000E+00  0.000E+00  1.03364E+03  0.000E+00  1.200E+01  6.000E-01  8.544E-01
   2   12    7     6     4    0.0000E+00  0.0000E+00   0.0000E+00  0.000E+00  0.000E+00  0.000E+00  1.02909E+03  0.000E+00  1.200E+01  6.000E-01  8.538E-02
   2   13    7     6     5    0.0000E+00 -7.7514E-01   7.7514E-01  0.000E+00  0.000E+00  0.000E+00  1.02601E+03  1.002E-01  1.200E+01  2.400E-01 -1.077E+00
   2   14    9     7     1    1.5000E+02  2.9383E+00   1.4706E+02  0.000E+00  0.000E+00  0.000E+00  1.03986E+03  2.283E+00  5.528E+01  5.591E+00  1.752E-01
   2   13    8     7     2    1.4706E+02  3.7707E+00   1.4329E+02  0.000E+00  0.000E+00  0.000E+00  1.03477E+03  2.266E+00  5.519E+01  6.140E+00  2.047E-01
   2   13    7     7     3    1.4329E+02  2.3924E+00   1.4090E+02  0.000E+00  0.000E+00  0.000E+00  1.02967E+03  2.249E+00  5.512E+01  5.574E+00  1.431E-01
   2   13    6     8     1    1.4167E+02  2.7885E-01   1.4140E+02  8.272E-03  0.000E+00  0.000E+00  1.02463E+03  2.756E+00  3.996E+01  4.073E+00  2.282E-02
   2   13    5     8     2    1.4140E+02 -2.9312E+00   1.4434E+02  8.272E-03  0.000E+00  0.000E+00  1.01839E+03  2.766E+00  4.011E+01  4.087E+00 -2.391E-01
   2   13    4     8     3    1.4434E+02 -5.7295E+00   1.5008E+02  8.272E-03  0.000E+00  0.000E+00  1.01217E+03  2.797E+00  4.056E+01  4.133E+00 -4.621E-01
   2   13    3     8     4    1.5008E+02 -6.1131E+00   1.5620E+02  8.272E-03  0.000E+00  0.000E+00  1.00596E+03  2.839E+00  4.116E+01  4.195E+00 -4.858E-01
   2   13    2     8     5    1.5620E+02 -3.5310E+00   1.5974E+02  8.272E-03  0.000E+00  0.000E+00  9.99747E+02  2.872E+00  4.165E+01  4.244E+00 -2.773E-01
   2   13    1     8     6    1.5974E+02 -2.2063E+00   1.6195E+02  4.963E-03  0.000E+00  0.000E+00  9.94767E+02  2.892E+00  4.193E+01  2.564E+00 -2.869E-01
   2    4    5     9     1    0.0000E+00  0.0000E+00   0.0000E+00  0.000E+00  0.000E+00  0.000E+00  1.06000E+03  0.000E+00  2.000E+01  2.000E-03  2.375E-01
   2    4    5    10     1    0.0000E+00  0.0000E+00   0.0000E+00  0.000E+00  0.000E+00  0.000E+00  1.08000E+03  0.000E+00  2.000E+01  2.000E-03  1.000E+00





     0  LAKE CELLS ARE DRY.

 PERIOD    12     TIME STEP    15     TIME STEP LENGTH  1.7520E+05
 PERIOD TIME  2.6280E+06     TOTAL SIMULATION TIME  3.1536E+07


                 HYDROLOGIC BUDGET SUMMARIES FOR SIMULATED LAKES
     (ALL FLUID FLUXES ARE VOLUMES ADDED TO THE LAKE DURING PRESENT TIME STEP)
     ----------------------------------------------------------------------------------------
 LAKE    STAGE         VOLUME     VOL. CHANGE      PRECIP     EVAPORATION    SPECIFIED RUNOFF     COMPUTED RUNOFF    TOTAL RUNOFF
   1  1.074500E+03  8.136788E+01 -9.804001E+00  0.000000E+00  8.983751E+00   0.000000E+00          0.000000E+00      0.000000E+00

            GROUND WATER            SURFACE WATER        WATER          UZF INFIL.
 LAKE    INFLOW     OUTFLOW      INFLOW     OUTFLOW       USE        FROM LAKE
   1  0.0000E+00  0.0000E+00  0.0000E+00  0.0000E+00  0.0000E+00       8.2024E-01

      CONNECTED LAKE   TIME-STEP         STAGE-CHANGE          PERCENT
 LAKE    INFLUX      SURFACE AREA   TIME STEP  CUMULATIVE    DISCREPANCY
   1   0.0000E+00     1.2819E+03  -2.1235E-06  4.8616E-04       0.000
 --------------------------------------------------------------------------------



            CUMULATIVE HYDROLOGIC BUDGET SUMMARIES FOR SIMULATED LAKES
     (ALL FLUID FLUXES ARE SUMS OF VOLUMES ADDED TO THE LAKE SINCE INITIAL TIME)
     ---------------------------------------------------------------------------
 LAKE       PRECIP       EVAP     SPECIFIED RUNOFF   COMPUTED RUNOFF   TOTAL RUNOFF
   1     0.0000E+00  1.6139E+06       0.0000E+00       0.0000E+00       0.0000E+00

            GROUND WATER            SURFACE WATER       UZF INFIL.
 LAKE    INFLOW     OUTFLOW      INFLOW     OUTFLOW     FROM LAKE
   1  0.0000E+00  0.0000E+00  1.9325E+08  4.8782E+07    1.4292E+08

         WATER    CONNECTED LAKE   CHANGE       PERCENT
 LAKE     USE         INFLUX       IN VOL.    DISCREPANCY
   1   0.0000E+00   0.0000E+00   8.1368E+01     -0.032
 --------------------------------------------------------------------------------

 UBDSV3 SAVING "           GW ET" ON UNIT  61 AT TIME STEP    15, STRESS PERIOD  12
 UBDSV3 SAVING "    UZF RECHARGE" ON UNIT  61 AT TIME STEP    15, STRESS PERIOD  12
 UBDSV3 SAVING " SURFACE LEAKAGE" ON UNIT  61 AT TIME STEP    15, STRESS PERIOD  12
 UBDSV3 SAVING "       HORT+DUNN" ON UNIT  61 AT TIME STEP    15, STRESS PERIOD  12
 UBDSV3 SAVING "  STORAGE CHANGE" ON UNIT  61 AT TIME STEP    15, STRESS PERIOD  12


UNSATURATED ZONE PACKAGE VOLUMETRIC BUDGET FOR  TIME STEP    15 STRESS PERIOD   12
  ------------------------------------------------------------------------------



     CUMULATIVE VOLUMES      L**3       RATES FOR THIS TIME STEP      L**3/T
     ------------------                 ------------------------

           IN:                                      IN:
           ---                                      ---
        INFILTRATION =  1652109237.6730          INFILTRATION =           8.4471

          OUT:                                     OUT:
          ----                                     ----
              UZF ET =  1571308877.3285                UZF ET =           8.3392
        UZF RECHARGE =   736685998.7398          UZF RECHARGE =           2.9927

            IN - OUT =  -655885638.3953              IN - OUT =          -2.8849

          STORAGE:                                 STORAGE:
          --------                                 --------
      STORAGE CHANGE =  -655904156.1513        STORAGE CHANGE =          -2.8848

 PERCENT DISCREPANCY IS DIFFERENCE BETWEEN IN-OUT MINUS CHANGE IN STORAGE
 DIVIDED BY THE AVERAGE OF IN AND OUT TIMES 100

 PERCENT DISCREPANCY =           0.00     PERCENT DISCREPANCY =          -0.00






1
              HEAD IN LAYER   1 AT END OF TIME STEP    15 IN STRESS PERIOD   12
  -----------------------------------------------------------------------------

           1       2       3       4       5       6       7       8       9      10
 ...................................................................................
   1  6999.00 6999.00 6999.00 6999.00 6999.00 6999.00 6999.00 6999.00 6999.00 6999.00
   2  6999.00 6999.00 6999.00 6999.00 6999.00 6999.00 6999.00 6999.00 6999.00 6999.00
   3  6999.00 6999.00 6999.00 6999.00 6999.00 6999.00 6999.00 6999.00 6999.00 6999.00
   4  6999.00 6999.00 6999.00 6999.00 1074.50 6999.00 6999.00 6999.00 6999.00 6999.00
   5  6999.00 6999.00 6999.00 6999.00 6999.00 6999.00 6999.00 6999.00 6999.00 6999.00
   6  6999.00 6999.00 6999.00 6999.00 6999.00 6999.00 6999.00 6999.00 6999.00 6999.00
   7  6999.00 6999.00 6999.00 6999.00 6999.00 6999.00 6999.00 6999.00 6999.00 6999.00
   8  6999.00 6999.00 6999.00 6999.00 6999.00 6999.00 6999.00 6999.00 6999.00 6999.00
   9  6999.00 6999.00 6999.00 6999.00 6999.00 6999.00 6999.00 6999.00 6999.00 6999.00
  10  6999.00 6999.00 6999.00 6999.00 6999.00 6999.00 6999.00 6999.00 6999.00 6999.00
  11  6999.00 6999.00 6999.00 6999.00 6999.00 6999.00 6999.00 6999.00 6999.00 6999.00
  12  6999.00 6999.00 6999.00 6999.00 6999.00 6999.00 6999.00 6999.00 6999.00 6999.00
  13  6999.00 6999.00 6999.00 6999.00 6999.00 6999.00 6999.00 6999.00 6999.00 6999.00
  14  6999.00 6999.00 6999.00 6999.00 6999.00 6999.00 6999.00 6999.00 6999.00 6999.00
  15  6999.00 6999.00 6999.00 6999.00 6999.00 6999.00 6999.00 6999.00 6999.00 6999.00
1
              HEAD IN LAYER   2 AT END OF TIME STEP    15 IN STRESS PERIOD   12
  -----------------------------------------------------------------------------

           1       2       3       4       5       6       7       8       9      10
 ...................................................................................
   1  1092.24 1089.25 6999.00 6999.00 6999.00 6999.00 6999.00 6999.00 6999.00 6999.00
   2  1088.84 1084.82 1080.01 6999.00 6999.00 1067.68 1066.88 1065.62 6999.00 6999.00
   3  6999.00 1075.75 1072.49 1068.25 1067.23 1065.73 1064.68 1063.95 6999.00 6999.00
   4  1062.43 1065.16 1065.02 1061.56 1059.29 1058.21 1058.34 1058.98 1058.28 6999.00
   5  1058.12 1056.98 1056.61 1055.28 1054.55 1054.05 1053.47 1054.00 1056.54 1058.19
   6  1053.88 1051.11 1050.13 1049.78 1049.74 1050.23 1050.85 1052.14 1053.34 1056.92
   7  1050.87 1045.84 1044.64 1044.69 1045.15 1046.20 1047.64 1049.15 1049.71 6999.00
   8  6999.00 1039.99 1039.54 1039.91 1040.57 1041.90 1043.33 1045.29 1045.47 6999.00
   9  6999.00 1033.88 1034.10 1034.90 1035.82 1037.49 1038.47 1039.40 1041.08 6999.00
  10  6999.00 1027.73 1028.52 1030.00 1031.30 1033.00 1034.10 1035.42 1037.68 1040.76
  11  6999.00 1020.15 1021.62 1024.98 1027.12 1029.37 1031.07 1032.91 1035.29 6999.00
  12  1003.14 1009.88 1014.29 1019.05 1022.75 1026.26 1028.83 1031.47 1034.90 6999.00
  13   995.63 1000.58 1007.42 1013.56 1019.11 1024.56 1029.24 1034.15 1036.73 6999.00
  14  6999.00 1007.10 1010.76 1015.70 1020.77 1025.61 1030.08 1035.17 1039.34 6999.00
  15  6999.00 6999.00 1018.81 1021.56 1025.08 1027.91 6999.00 6999.00 6999.00 6999.00

 HEAD WILL BE SAVED ON UNIT   58 AT END OF TIME STEP   15, STRESS PERIOD   12
1
  VOLUMETRIC BUDGET FOR ENTIRE MODEL AT END OF TIME STEP   15, STRESS PERIOD  12
  ------------------------------------------------------------------------------

     CUMULATIVE VOLUMES      L**3       RATES FOR THIS TIME STEP      L**3/T
     ------------------                 ------------------------

           IN:                                      IN:
           ---                                      ---
             STORAGE =   372651424.0000               STORAGE =          28.2775
       CONSTANT HEAD =           0.0000         CONSTANT HEAD =           0.0000
               WELLS =           0.0000                 WELLS =           0.0000
     HEAD DEP BOUNDS =     6767664.0000       HEAD DEP BOUNDS =           0.2151
      STREAM LEAKAGE =  2164709376.0000        STREAM LEAKAGE =          23.7802
       LAKE  SEEPAGE =           0.0000         LAKE  SEEPAGE =           0.0000
        UZF RECHARGE =   736685952.0000          UZF RECHARGE =           2.9927
               GW ET =           0.0000                 GW ET =           0.0000
     SURFACE LEAKAGE =           0.0000       SURFACE LEAKAGE =           0.0000

            TOTAL IN =  3280814592.0000              TOTAL IN =          55.2656

          OUT:                                     OUT:
          ----                                     ----
             STORAGE =  1791574656.0000               STORAGE =          15.3517
       CONSTANT HEAD =           0.0000         CONSTANT HEAD =           0.0000
               WELLS =   394200000.0000                 WELLS =           0.0000
     HEAD DEP BOUNDS =     9544877.0000       HEAD DEP BOUNDS =           0.2898
      STREAM LEAKAGE =   592794240.0000        STREAM LEAKAGE =          21.2862
       LAKE  SEEPAGE =           0.0000         LAKE  SEEPAGE =           0.0000
        UZF RECHARGE =           0.0000          UZF RECHARGE =           0.0000
               GW ET =   489848576.0000                 GW ET =          18.2910
     SURFACE LEAKAGE =    88925304.0000       SURFACE LEAKAGE =       4.3407E-02

           TOTAL OUT =  3366887680.0000             TOTAL OUT =          55.2622

            IN - OUT =   -86073088.0000              IN - OUT =       3.3417E-03

 PERCENT DISCREPANCY =          -2.59     PERCENT DISCREPANCY =           0.01






         TIME SUMMARY AT END OF TIME STEP   15 IN STRESS PERIOD   12
                    SECONDS     MINUTES      HOURS       DAYS        YEARS
                    -----------------------------------------------------------
   TIME STEP LENGTH 1.75200E+05  2920.0      48.667      2.0278     5.55175E-03
 STRESS PERIOD TIME 2.62800E+06  43800.      730.00      30.417     8.32763E-02
         TOTAL TIME 3.15360E+07 5.25600E+05  8760.0      365.00     0.99932    
1
 
 SOLVING FOR HEAD 
                                                   Max.-Head-Change                         Max.-Flux-Residual
  Residual-Control   Outer-Iter.   Inner-Iter.     Column Row Layer    Maximum-Head-Change  Column Row Layer    Maximum-Flux-Residual          L2-NORM 
          0                 1           2             5    3     2      -0.2426964233E+00       5    3    2        -0.3302288062E+01      0.8186185708E+01
          0                 2           2             5    3     2       0.2335068351E-01       5    3    2         0.3296998214E+00      0.7750142469E+00
          0                 3           1             5    3     2      -0.1347222792E-02       5    3    2        -0.1973727214E-01      0.4492166189E-01
          0                 4           1             5    3     2       0.2783006882E-04       5    3    2         0.4229876884E-03      0.9512361547E-03

    ------------------------------------------------
       NWT REQUIRED            4 OUTER ITERATIONS 
       AND A TOTAL OF          6 INNER ITERATIONS.
    ------------------------------------------------

 NO OUTPUT CONTROL FOR STRESS PERIOD   12   TIME STEP   16
 
 SOLVING FOR HEAD 
                                                   Max.-Head-Change                         Max.-Flux-Residual
  Residual-Control   Outer-Iter.   Inner-Iter.     Column Row Layer    Maximum-Head-Change  Column Row Layer    Maximum-Flux-Residual          L2-NORM 
          0                 1           2             5    3     2      -0.2239865901E+00       5    3    2        -0.3044878890E+01      0.7697538858E+01
          0                 2           2             5    3     2       0.2147693416E-01       5    3    2         0.3029655908E+00      0.7258122139E+00
          0                 3           1             5    3     2      -0.1232351334E-02       5    3    2        -0.1803806188E-01      0.4194067547E-01
          0                 4           1             5    3     2       0.2501129581E-04       5    3    2         0.3797399622E-03      0.8857332788E-03

    ------------------------------------------------
       NWT REQUIRED            4 OUTER ITERATIONS 
       AND A TOTAL OF          6 INNER ITERATIONS.
    ------------------------------------------------

 NO OUTPUT CONTROL FOR STRESS PERIOD   12   TIME STEP   17
 
 SOLVING FOR HEAD 
                                                   Max.-Head-Change                         Max.-Flux-Residual
  Residual-Control   Outer-Iter.   Inner-Iter.     Column Row Layer    Maximum-Head-Change  Column Row Layer    Maximum-Flux-Residual          L2-NORM 
          0                 1           2             5    3     2      -0.2148650455E+00       4    3    2        -0.2928373798E+01      0.7543642492E+01
          0                 2           2             5    3     2       0.2060027145E-01       5    3    2         0.2903306411E+00      0.7119994278E+00
          0                 3           1             5    3     2      -0.1181786301E-02       5    3    2        -0.1728181541E-01      0.4116932124E-01
          0                 4           1             5    3     2       0.2396723844E-04       5    3    2         0.3635393723E-03      0.8695168256E-03

    ------------------------------------------------
       NWT REQUIRED            4 OUTER ITERATIONS 
       AND A TOTAL OF          6 INNER ITERATIONS.
    ------------------------------------------------

 NO OUTPUT CONTROL FOR STRESS PERIOD   12   TIME STEP   18
 
 SOLVING FOR HEAD 
                                                   Max.-Head-Change                         Max.-Flux-Residual
  Residual-Control   Outer-Iter.   Inner-Iter.     Column Row Layer    Maximum-Head-Change  Column Row Layer    Maximum-Flux-Residual          L2-NORM 
          0                 1           2             5    3     2      -0.2063010409E+00       4    3    2        -0.2888402341E+01      0.7398723490E+01
          0                 2           2             5    3     2       0.1977718929E-01       4    3    2         0.2853059157E+00      0.6989622338E+00
          0                 3           1             5    3     2      -0.1134462503E-02       4    3    2        -0.1678004217E-01      0.4044121486E-01
          0                 4           1             5    3     2       0.2314349538E-04       5    3    2         0.3508168492E-03      0.8544679130E-03

    ------------------------------------------------
       NWT REQUIRED            4 OUTER ITERATIONS 
       AND A TOTAL OF          6 INNER ITERATIONS.
    ------------------------------------------------

 NO OUTPUT CONTROL FOR STRESS PERIOD   12   TIME STEP   19
 
 SOLVING FOR HEAD 
                                                   Max.-Head-Change                         Max.-Flux-Residual
  Residual-Control   Outer-Iter.   Inner-Iter.     Column Row Layer    Maximum-Head-Change  Column Row Layer    Maximum-Flux-Residual          L2-NORM 
          0                 1           2             5    3     2      -0.1982522453E+00       4    3    2        -0.2847583703E+01      0.7261876333E+01
          0                 2           2             5    3     2       0.1900362522E-01       4    3    2         0.2812959852E+00      0.6866701164E+00
          0                 3           1             5    3     2      -0.1089844920E-02       4    3    2        -0.1654705354E-01      0.3975916698E-01
          0                 4           1             5    3     2       0.2222906421E-04       4    3    2         0.3377525511E-03      0.8401428859E-03

    ------------------------------------------------
       NWT REQUIRED            4 OUTER ITERATIONS 
       AND A TOTAL OF          6 INNER ITERATIONS.
    ------------------------------------------------

 NO OUTPUT CONTROL FOR STRESS PERIOD   12   TIME STEP   20
 
 SOLVING FOR HEAD 
                                                   Max.-Head-Change                         Max.-Flux-Residual
  Residual-Control   Outer-Iter.   Inner-Iter.     Column Row Layer    Maximum-Head-Change  Column Row Layer    Maximum-Flux-Residual          L2-NORM 
          0                 1           2             5    3     2      -0.1906802993E+00       4    3    2        -0.2806228657E+01      0.7132181255E+01
          0                 2           2             5    3     2       0.1827588003E-01       4    3    2         0.2772302671E+00      0.6749957246E+00
          0                 3           1             5    3     2      -0.1048014661E-02       4    3    2        -0.1630839169E-01      0.3911879692E-01
          0                 4           1             5    3     2       0.2137460882E-04       4    3    2         0.3329424051E-03      0.8269410661E-03

    ------------------------------------------------
       NWT REQUIRED            4 OUTER ITERATIONS 
       AND A TOTAL OF          6 INNER ITERATIONS.
    ------------------------------------------------

 NO OUTPUT CONTROL FOR STRESS PERIOD   12   TIME STEP   21
 
 SOLVING FOR HEAD 
                                                   Max.-Head-Change                         Max.-Flux-Residual
  Residual-Control   Outer-Iter.   Inner-Iter.     Column Row Layer    Maximum-Head-Change  Column Row Layer    Maximum-Flux-Residual          L2-NORM 
          0                 1           2             5    3     2      -0.1835504955E+00       4    3    2        -0.2764599875E+01      0.7008381964E+01
          0                 2           2             5    3     2       0.1759077648E-01       4    3    2         0.2731330451E+00      0.6640601909E+00
          0                 3           1             5    3     2      -0.1008494834E-02       4    3    2        -0.1606972651E-01      0.3850467931E-01
          0                 4           1             5    3     2       0.2055667426E-04       4    3    2         0.3279546756E-03      0.8139199265E-03

    ------------------------------------------------
       NWT REQUIRED            4 OUTER ITERATIONS 
       AND A TOTAL OF          6 INNER ITERATIONS.
    ------------------------------------------------

 NO OUTPUT CONTROL FOR STRESS PERIOD   12   TIME STEP   22
 
 SOLVING FOR HEAD 
                                                   Max.-Head-Change                         Max.-Flux-Residual
  Residual-Control   Outer-Iter.   Inner-Iter.     Column Row Layer    Maximum-Head-Change  Column Row Layer    Maximum-Flux-Residual          L2-NORM 
          0                 1           2             5    3     2      -0.1768298924E+00       4    3    2        -0.2722920552E+01      0.6890657770E+01
          0                 2           2             5    3     2       0.1694512629E-01       4    3    2         0.2690265625E+00      0.6537287668E+00
          0                 3           1             5    3     2      -0.9712466240E-03       4    3    2        -0.1583028446E-01      0.3792617456E-01

    ------------------------------------------------
       NWT REQUIRED            3 OUTER ITERATIONS 
       AND A TOTAL OF          5 INNER ITERATIONS.
    ------------------------------------------------

 NO OUTPUT CONTROL FOR STRESS PERIOD   12   TIME STEP   23
 
 SOLVING FOR HEAD 
                                                   Max.-Head-Change                         Max.-Flux-Residual
  Residual-Control   Outer-Iter.   Inner-Iter.     Column Row Layer    Maximum-Head-Change  Column Row Layer    Maximum-Flux-Residual          L2-NORM 
          0                 1           2             5    3     2      -0.1704893503E+00       4    3    2        -0.2681366944E+01      0.6778484535E+01
          0                 2           2             5    3     2       0.1633584896E-01       4    3    2         0.2649329509E+00      0.6437567051E+00
          0                 3           1             5    3     2      -0.9362385336E-03       4    3    2        -0.1558936322E-01      0.3736786258E-01

    ------------------------------------------------
       NWT REQUIRED            3 OUTER ITERATIONS 
       AND A TOTAL OF          5 INNER ITERATIONS.
    ------------------------------------------------

 NO OUTPUT CONTROL FOR STRESS PERIOD   12   TIME STEP   24
 
 SOLVING FOR HEAD 
                                                   Max.-Head-Change                         Max.-Flux-Residual
  Residual-Control   Outer-Iter.   Inner-Iter.     Column Row Layer    Maximum-Head-Change  Column Row Layer    Maximum-Flux-Residual          L2-NORM 
          0                 1           2             5    3     2      -0.1645025754E+00       4    3    2        -0.2640098525E+01      0.6671558508E+01
          0                 2           2             5    3     2       0.1576043654E-01       4    3    2         0.2608677999E+00      0.6342641763E+00
          0                 3           1             5    3     2      -0.9030226676E-03       4    3    2        -0.1535242832E-01      0.3683516460E-01

    ------------------------------------------------
       NWT REQUIRED            3 OUTER ITERATIONS 
       AND A TOTAL OF          5 INNER ITERATIONS.
    ------------------------------------------------

 NO OUTPUT CONTROL FOR STRESS PERIOD   12   TIME STEP   25
 
 SOLVING FOR HEAD 
                                                   Max.-Head-Change                         Max.-Flux-Residual
  Residual-Control   Outer-Iter.   Inner-Iter.     Column Row Layer    Maximum-Head-Change  Column Row Layer    Maximum-Flux-Residual          L2-NORM 
          0                 1           2             5    3     2      -0.1588448397E+00       4    3    2        -0.2599219587E+01      0.6569269806E+01
          0                 2           2             5    3     2       0.1521699917E-01       4    3    2         0.2568345441E+00      0.6252422327E+00
          0                 3           1             5    3     2      -0.8717239728E-03       4    3    2        -0.1511581754E-01      0.3632798802E-01

    ------------------------------------------------
       NWT REQUIRED            3 OUTER ITERATIONS 
       AND A TOTAL OF          5 INNER ITERATIONS.
    ------------------------------------------------

 NO OUTPUT CONTROL FOR STRESS PERIOD   12   TIME STEP   26
 
 SOLVING FOR HEAD 
                                                   Max.-Head-Change                         Max.-Flux-Residual
  Residual-Control   Outer-Iter.   Inner-Iter.     Column Row Layer    Maximum-Head-Change  Column Row Layer    Maximum-Flux-Residual          L2-NORM 
          0                 1           2             5    3     2      -0.1534932155E+00       4    3    2        -0.2558852610E+01      0.6471920552E+01
          0                 2           2             5    3     2       0.1470289535E-01       4    3    2         0.2528515000E+00      0.6162730577E+00
          0                 3           1             5    3     2      -0.8422573927E-03       4    3    2        -0.1488014627E-01      0.3582334962E-01

    ------------------------------------------------
       NWT REQUIRED            3 OUTER ITERATIONS 
       AND A TOTAL OF          5 INNER ITERATIONS.
    ------------------------------------------------

 NO OUTPUT CONTROL FOR STRESS PERIOD   12   TIME STEP   27
 
 SOLVING FOR HEAD 
                                                   Max.-Head-Change                         Max.-Flux-Residual
  Residual-Control   Outer-Iter.   Inner-Iter.     Column Row Layer    Maximum-Head-Change  Column Row Layer    Maximum-Flux-Residual          L2-NORM 
          0                 1           2             5    3     2      -0.1484278212E+00       4    3    2        -0.2519055476E+01      0.6379131933E+01
          0                 2           2             5    3     2       0.1421622843E-01       4    3    2         0.2489255299E+00      0.6082860238E+00
          0                 3           1             5    3     2      -0.8142336047E-03       4    3    2        -0.1464966939E-01      0.3537855815E-01

    ------------------------------------------------
       NWT REQUIRED            3 OUTER ITERATIONS 
       AND A TOTAL OF          5 INNER ITERATIONS.
    ------------------------------------------------

 NO OUTPUT CONTROL FOR STRESS PERIOD   12   TIME STEP   28
 
 SOLVING FOR HEAD 
                                                   Max.-Head-Change                         Max.-Flux-Residual
  Residual-Control   Outer-Iter.   Inner-Iter.     Column Row Layer    Maximum-Head-Change  Column Row Layer    Maximum-Flux-Residual          L2-NORM 
          0                 1           2             5    3     2      -0.1436290739E+00       4    3    2        -0.2479907933E+01      0.6290029637E+01
          0                 2           2             5    3     2       0.1375517404E-01       4    3    2         0.2450626188E+00      0.6003590936E+00
          0                 3           1             5    3     2      -0.7876910202E-03       4    3    2        -0.1442296728E-01      0.3493452413E-01

    ------------------------------------------------
       NWT REQUIRED            3 OUTER ITERATIONS 
       AND A TOTAL OF          5 INNER ITERATIONS.
    ------------------------------------------------

 NO OUTPUT CONTROL FOR STRESS PERIOD   12   TIME STEP   29
 
 SOLVING FOR HEAD 
                                                   Max.-Head-Change                         Max.-Flux-Residual
  Residual-Control   Outer-Iter.   Inner-Iter.     Column Row Layer    Maximum-Head-Change  Column Row Layer    Maximum-Flux-Residual          L2-NORM 
          0                 1           2             5    3     2      -0.1390799000E+00       4    3    2        -0.2441442214E+01      0.6203937905E+01
          0                 2           2             5    3     2       0.1331824963E-01       4    3    2         0.2412638540E+00      0.5925752628E+00
          0                 3           1             5    3     2      -0.7625356941E-03       4    3    2        -0.1419976237E-01      0.3449572711E-01

    ------------------------------------------------
       NWT REQUIRED            3 OUTER ITERATIONS 
       AND A TOTAL OF          5 INNER ITERATIONS.
    ------------------------------------------------

 NO OUTPUT CONTROL FOR STRESS PERIOD   12   TIME STEP   30
 
 SOLVING FOR HEAD 
                                                   Max.-Head-Change                         Max.-Flux-Residual
  Residual-Control   Outer-Iter.   Inner-Iter.     Column Row Layer    Maximum-Head-Change  Column Row Layer    Maximum-Flux-Residual          L2-NORM 
          0                 1           2             5    3     2      -0.1347630328E+00       4    3    2        -0.2403709311E+01      0.6121784366E+01
          0                 2           2             5    3     2       0.1290352378E-01       4    3    2         0.2375386731E+00      0.5852305037E+00
          0                 3           1             5    3     2      -0.7386589957E-03       4    3    2        -0.1398074923E-01      0.3408519250E-01

    ------------------------------------------------
       NWT REQUIRED            3 OUTER ITERATIONS 
       AND A TOTAL OF          5 INNER ITERATIONS.
    ------------------------------------------------

 NO OUTPUT CONTROL FOR STRESS PERIOD   12   TIME STEP   31
 
 SOLVING FOR HEAD 
                                                   Max.-Head-Change                         Max.-Flux-Residual
  Residual-Control   Outer-Iter.   Inner-Iter.     Column Row Layer    Maximum-Head-Change  Column Row Layer    Maximum-Flux-Residual          L2-NORM 
          0                 1           2             5    3     2      -0.1306642589E+00       4    3    2        -0.2366724716E+01      0.6042493173E+01
          0                 2           2             5    3     2       0.1250990282E-01       4    3    2         0.2338846487E+00      0.5780002115E+00
          0                 3           1             5    3     2      -0.7160024594E-03       4    3    2        -0.1376595677E-01      0.3368149297E-01

    ------------------------------------------------
       NWT REQUIRED            3 OUTER ITERATIONS 
       AND A TOTAL OF          5 INNER ITERATIONS.
    ------------------------------------------------

 NO OUTPUT CONTROL FOR STRESS PERIOD   12   TIME STEP   32
 
 SOLVING FOR HEAD 
                                                   Max.-Head-Change                         Max.-Flux-Residual
  Residual-Control   Outer-Iter.   Inner-Iter.     Column Row Layer    Maximum-Head-Change  Column Row Layer    Maximum-Flux-Residual          L2-NORM 
          0                 1           2             5    3     2      -0.1267697596E+00       4    3    2        -0.2330513728E+01      0.5965807713E+01
          0                 2           2             5    3     2       0.1213578901E-01       4    3    2         0.2303084315E+00      0.5711482113E+00
          0                 3           1             5    3     2      -0.6944723785E-03       4    3    2        -0.1355571800E-01      0.3330031878E-01

    ------------------------------------------------
       NWT REQUIRED            3 OUTER ITERATIONS 
       AND A TOTAL OF          5 INNER ITERATIONS.
    ------------------------------------------------

 NO OUTPUT CONTROL FOR STRESS PERIOD   12   TIME STEP   33
 
 SOLVING FOR HEAD 
                                                   Max.-Head-Change                         Max.-Flux-Residual
  Residual-Control   Outer-Iter.   Inner-Iter.     Column Row Layer    Maximum-Head-Change  Column Row Layer    Maximum-Flux-Residual          L2-NORM 
          0                 1           2             5    3     2      -0.1230665717E+00       4    3    2        -0.2295084246E+01      0.5891857729E+01
          0                 2           2             5    3     2       0.1178006286E-01       4    3    2         0.2268086527E+00      0.5643897106E+00
          0                 3           1             5    3     2      -0.6739994608E-03       4    3    2        -0.1334980069E-01      0.3293066065E-01

    ------------------------------------------------
       NWT REQUIRED            3 OUTER ITERATIONS 
       AND A TOTAL OF          5 INNER ITERATIONS.
    ------------------------------------------------

 NO OUTPUT CONTROL FOR STRESS PERIOD   12   TIME STEP   34
 
 SOLVING FOR HEAD 
                                                   Max.-Head-Change                         Max.-Flux-Residual
  Residual-Control   Outer-Iter.   Inner-Iter.     Column Row Layer    Maximum-Head-Change  Column Row Layer    Maximum-Flux-Residual          L2-NORM 
          0                 1           2             5    3     2      -0.1195425975E+00       4    3    2        -0.2260432920E+01      0.5820294028E+01
          0                 2           2             5    3     2       0.1144156766E-01       4    3    2         0.2233852175E+00      0.5579288126E+00
          0                 3           1             5    3     2      -0.6545186292E-03       4    3    2        -0.1314832874E-01      0.3257458191E-01

    ------------------------------------------------
       NWT REQUIRED            3 OUTER ITERATIONS 
       AND A TOTAL OF          5 INNER ITERATIONS.
    ------------------------------------------------

 NO OUTPUT CONTROL FOR STRESS PERIOD   12   TIME STEP   35
 
 SOLVING FOR HEAD 
                                                   Max.-Head-Change                         Max.-Flux-Residual
  Residual-Control   Outer-Iter.   Inner-Iter.     Column Row Layer    Maximum-Head-Change  Column Row Layer    Maximum-Flux-Residual          L2-NORM 
          0                 1           2             5    3     2      -0.1161871336E+00       4    3    2        -0.2226572830E+01      0.5751034880E+01
          0                 2           2             5    3     2       0.1111940176E-01       4    3    2         0.2200375010E+00      0.5516310672E+00
          0                 3           1             5    3     2      -0.6359824256E-03       4    3    2        -0.1295135258E-01      0.3222147286E-01

    ------------------------------------------------
       NWT REQUIRED            3 OUTER ITERATIONS 
       AND A TOTAL OF          5 INNER ITERATIONS.
    ------------------------------------------------

 NO OUTPUT CONTROL FOR STRESS PERIOD   12   TIME STEP   36
 
 SOLVING FOR HEAD 
                                                   Max.-Head-Change                         Max.-Flux-Residual
  Residual-Control   Outer-Iter.   Inner-Iter.     Column Row Layer    Maximum-Head-Change  Column Row Layer    Maximum-Flux-Residual          L2-NORM 
          0                 1           2             5    3     2      -0.1129897012E+00       4    3    2        -0.2193499622E+01      0.5684412719E+01
          0                 2           2             5    3     2       0.1081229677E-01       4    3    2         0.2167690186E+00      0.5455629336E+00
          0                 3           1             5    3     2      -0.6183130342E-03       4    3    2        -0.1275899583E-01      0.3187765090E-01

    ------------------------------------------------
       NWT REQUIRED            3 OUTER ITERATIONS 
       AND A TOTAL OF          5 INNER ITERATIONS.
    ------------------------------------------------

 NO OUTPUT CONTROL FOR STRESS PERIOD   12   TIME STEP   37
 
 SOLVING FOR HEAD 
                                                   Max.-Head-Change                         Max.-Flux-Residual
  Residual-Control   Outer-Iter.   Inner-Iter.     Column Row Layer    Maximum-Head-Change  Column Row Layer    Maximum-Flux-Residual          L2-NORM 
          0                 1           2             5    3     2      -0.1099408765E+00       4    3    2        -0.2161196249E+01      0.5619615388E+01
          0                 2           2             5    3     2       0.1051947475E-01       4    3    2         0.2135760577E+00      0.5397530828E+00
          0                 3           1             5    3     2      -0.6014636205E-03       4    3    2        -0.1257090733E-01      0.3154792825E-01

    ------------------------------------------------
       NWT REQUIRED            3 OUTER ITERATIONS 
       AND A TOTAL OF          5 INNER ITERATIONS.
    ------------------------------------------------

 NO OUTPUT CONTROL FOR STRESS PERIOD   12   TIME STEP   38
 
 SOLVING FOR HEAD 
                                                   Max.-Head-Change                         Max.-Flux-Residual
  Residual-Control   Outer-Iter.   Inner-Iter.     Column Row Layer    Maximum-Head-Change  Column Row Layer    Maximum-Flux-Residual          L2-NORM 
          0                 1           2             5    3     2      -0.1070322488E+00       4    3    2        -0.2129659018E+01      0.5556943505E+01
          0                 2           2             5    3     2       0.1024026201E-01       4    3    2         0.2104568328E+00      0.5340636822E+00
          0                 3           1             5    3     2      -0.5854012016E-03       4    3    2        -0.1238728235E-01      0.3122614725E-01

    ------------------------------------------------
       NWT REQUIRED            3 OUTER ITERATIONS 
       AND A TOTAL OF          5 INNER ITERATIONS.
    ------------------------------------------------

 NO OUTPUT CONTROL FOR STRESS PERIOD   12   TIME STEP   39
 
 SOLVING FOR HEAD 
                                                   Max.-Head-Change                         Max.-Flux-Residual
  Residual-Control   Outer-Iter.   Inner-Iter.     Column Row Layer    Maximum-Head-Change  Column Row Layer    Maximum-Flux-Residual          L2-NORM 
          0                 1           2             5    3     2      -0.1042544690E+00       4    3    2        -0.2098883063E+01      0.5496448768E+01
          0                 2           2             5    3     2       0.9973493001E-02       4    3    2         0.2074142233E+00      0.5285200025E+00
          0                 3           1             5    3     2      -0.5700532596E-03       4    3    2        -0.1220801344E-01      0.3091278099E-01

    ------------------------------------------------
       NWT REQUIRED            3 OUTER ITERATIONS 
       AND A TOTAL OF          5 INNER ITERATIONS.
    ------------------------------------------------

 NO OUTPUT CONTROL FOR STRESS PERIOD   12   TIME STEP   40
 
 SOLVING FOR HEAD 
                                                   Max.-Head-Change                         Max.-Flux-Residual
  Residual-Control   Outer-Iter.   Inner-Iter.     Column Row Layer    Maximum-Head-Change  Column Row Layer    Maximum-Flux-Residual          L2-NORM 
          0                 1           2             5    3     2      -0.1016010241E+00       4    3    2        -0.2068837688E+01      0.5437764902E+01
          0                 2           2             5    3     2       0.9718549522E-02       4    3    2         0.2044452972E+00      0.5232011842E+00
          0                 3           1             5    3     2      -0.5553891265E-03       4    3    2        -0.1203309511E-01      0.3061183209E-01

    ------------------------------------------------
       NWT REQUIRED            3 OUTER ITERATIONS 
       AND A TOTAL OF          5 INNER ITERATIONS.
    ------------------------------------------------

 NO OUTPUT CONTROL FOR STRESS PERIOD   12   TIME STEP   41
 
 SOLVING FOR HEAD 
                                                   Max.-Head-Change                         Max.-Flux-Residual
  Residual-Control   Outer-Iter.   Inner-Iter.     Column Row Layer    Maximum-Head-Change  Column Row Layer    Maximum-Flux-Residual          L2-NORM 
          0                 1           2             5    3     2      -0.9906442689E-01       4    3    2        -0.2039526858E+01      0.5380542960E+01
          0                 2           2             5    3     2       0.9475213386E-02       4    3    2         0.2015432136E+00      0.5180266373E+00
          0                 3           1             5    3     2      -0.5413922095E-03       4    3    2        -0.1186210016E-01      0.3031811012E-01

    ------------------------------------------------
       NWT REQUIRED            3 OUTER ITERATIONS 
       AND A TOTAL OF          5 INNER ITERATIONS.
    ------------------------------------------------

 NO OUTPUT CONTROL FOR STRESS PERIOD   12   TIME STEP   42
 
 SOLVING FOR HEAD 
                                                   Max.-Head-Change                         Max.-Flux-Residual
  Residual-Control   Outer-Iter.   Inner-Iter.     Column Row Layer    Maximum-Head-Change  Column Row Layer    Maximum-Flux-Residual          L2-NORM 
          0                 1           2             5    3     2      -0.9663820554E-01       4    3    2        -0.2010924389E+01      0.5324964317E+01
          0                 2           2             5    3     2       0.9242233371E-02       4    3    2         0.1987145124E+00      0.5130187177E+00
          0                 3           1             5    3     2      -0.5279941060E-03       4    3    2        -0.1169541824E-01      0.3003445746E-01

    ------------------------------------------------
       NWT REQUIRED            3 OUTER ITERATIONS 
       AND A TOTAL OF          5 INNER ITERATIONS.
    ------------------------------------------------

 NO OUTPUT CONTROL FOR STRESS PERIOD   12   TIME STEP   43
 
 SOLVING FOR HEAD 
                                                   Max.-Head-Change                         Max.-Flux-Residual
  Residual-Control   Outer-Iter.   Inner-Iter.     Column Row Layer    Maximum-Head-Change  Column Row Layer    Maximum-Flux-Residual          L2-NORM 
          0                 1           2             5    3     2      -0.9431551059E-01       4    3    2        -0.1983016376E+01      0.5271035979E+01
          0                 2           2             5    3     2       0.9019076573E-02       4    3    2         0.1959559560E+00      0.5081459416E+00
          0                 3           1             5    3     2      -0.5151580104E-03       4    3    2        -0.1153278969E-01      0.2975823198E-01

    ------------------------------------------------
       NWT REQUIRED            3 OUTER ITERATIONS 
       AND A TOTAL OF          5 INNER ITERATIONS.
    ------------------------------------------------

 NO OUTPUT CONTROL FOR STRESS PERIOD   12   TIME STEP   44
 
 SOLVING FOR HEAD 
                                                   Max.-Head-Change                         Max.-Flux-Residual
  Residual-Control   Outer-Iter.   Inner-Iter.     Column Row Layer    Maximum-Head-Change  Column Row Layer    Maximum-Flux-Residual          L2-NORM 
          0                 1           2             5    3     2      -0.9209129631E-01       4    3    2        -0.1955789747E+01      0.5218501008E+01
          0                 2           2             5    3     2       0.8805634392E-02       4    3    2         0.1932610165E+00      0.5034366879E+00
          0                 3           1             5    3     2      -0.5028826044E-03       4    3    2        -0.1137384743E-01      0.2949106159E-01

    ------------------------------------------------
       NWT REQUIRED            3 OUTER ITERATIONS 
       AND A TOTAL OF          5 INNER ITERATIONS.
    ------------------------------------------------

 NO OUTPUT CONTROL FOR STRESS PERIOD   12   TIME STEP   45
 
 SOLVING FOR HEAD 
                                                   Max.-Head-Change                         Max.-Flux-Residual
  Residual-Control   Outer-Iter.   Inner-Iter.     Column Row Layer    Maximum-Head-Change  Column Row Layer    Maximum-Flux-Residual          L2-NORM 
          0                 1           2             5    3     2      -0.8995951942E-01       4    3    2        -0.1929215897E+01      0.5167741213E+01
          0                 2           2             5    3     2       0.8600947072E-02       4    3    2         0.1906320960E+00      0.4988773974E+00
          0                 3           1             5    3     2      -0.4911124959E-03       4    3    2        -0.1121886264E-01      0.2927899137E-01

    ------------------------------------------------
       NWT REQUIRED            3 OUTER ITERATIONS 
       AND A TOTAL OF          5 INNER ITERATIONS.
    ------------------------------------------------

 NO OUTPUT CONTROL FOR STRESS PERIOD   12   TIME STEP   46
 
 SOLVING FOR HEAD 
                                                   Max.-Head-Change                         Max.-Flux-Residual
  Residual-Control   Outer-Iter.   Inner-Iter.     Column Row Layer    Maximum-Head-Change  Column Row Layer    Maximum-Flux-Residual          L2-NORM 
          0                 1           2             5    3     2      -0.8791590420E-01       4    3    2        -0.1903294727E+01      0.5117703356E+01
          0                 2           2             5    3     2       0.8404849704E-02       4    3    2         0.1880658030E+00      0.4943906163E+00
          0                 3           1             5    3     2      -0.4798370882E-03       3    3    2        -0.1109160041E-01      0.2897532284E-01

    ------------------------------------------------
       NWT REQUIRED            3 OUTER ITERATIONS 
       AND A TOTAL OF          5 INNER ITERATIONS.
    ------------------------------------------------

 NO OUTPUT CONTROL FOR STRESS PERIOD   12   TIME STEP   47
 
 SOLVING FOR HEAD 
                                                   Max.-Head-Change                         Max.-Flux-Residual
  Residual-Control   Outer-Iter.   Inner-Iter.     Column Row Layer    Maximum-Head-Change  Column Row Layer    Maximum-Flux-Residual          L2-NORM 
          0                 1           2             5    3     2      -0.8595476582E-01       4    3    2        -0.1877995524E+01      0.5068942852E+01
          0                 2           2             5    3     2       0.8216436808E-02       4    3    2         0.1855644502E+00      0.4898434096E+00
          0                 3           1             5    3     2      -0.4690039974E-03       3    3    2        -0.1098408540E-01      0.2871643849E-01

    ------------------------------------------------
       NWT REQUIRED            3 OUTER ITERATIONS 
       AND A TOTAL OF          5 INNER ITERATIONS.
    ------------------------------------------------

 NO OUTPUT CONTROL FOR STRESS PERIOD   12   TIME STEP   48
 
 SOLVING FOR HEAD 
                                                   Max.-Head-Change                         Max.-Flux-Residual
  Residual-Control   Outer-Iter.   Inner-Iter.     Column Row Layer    Maximum-Head-Change  Column Row Layer    Maximum-Flux-Residual          L2-NORM 
          0                 1           2             5    3     2      -0.8407259917E-01       4    3    2        -0.1853302888E+01      0.5021324996E+01
          0                 2           2             5    3     2       0.8035725484E-02       4    3    2         0.1831208910E+00      0.4854087807E+00
          0                 3           1             5    3     2      -0.4586142245E-03       3    3    2        -0.1087865079E-01      0.2846377313E-01

    ------------------------------------------------
       NWT REQUIRED            3 OUTER ITERATIONS 
       AND A TOTAL OF          5 INNER ITERATIONS.
    ------------------------------------------------

 NO OUTPUT CONTROL FOR STRESS PERIOD   12   TIME STEP   49
 
 SOLVING FOR HEAD 
                                                   Max.-Head-Change                         Max.-Flux-Residual
  Residual-Control   Outer-Iter.   Inner-Iter.     Column Row Layer    Maximum-Head-Change  Column Row Layer    Maximum-Flux-Residual          L2-NORM 
          0                 1           2             5    3     2      -0.8226482893E-01       4    3    2        -0.1829200678E+01      0.4974759943E+01
          0                 2           2             5    3     2       0.7862396991E-02       3    3    2         0.1810292453E+00      0.4810945950E+00
          0                 3           1             5    3     2      -0.4486493967E-03       3    3    2        -0.1077515007E-01      0.2821548653E-01

    ------------------------------------------------
       NWT REQUIRED            3 OUTER ITERATIONS 
       AND A TOTAL OF          5 INNER ITERATIONS.
    ------------------------------------------------

 NO OUTPUT CONTROL FOR STRESS PERIOD   12   TIME STEP   50
 
 SOLVING FOR HEAD 
                                                   Max.-Head-Change                         Max.-Flux-Residual
  Residual-Control   Outer-Iter.   Inner-Iter.     Column Row Layer    Maximum-Head-Change  Column Row Layer    Maximum-Flux-Residual          L2-NORM 
          0                 1           2             5    3     2      -0.8052707203E-01       4    3    2        -0.1805673300E+01      0.4929480695E+01
          0                 2           2             5    3     2       0.7695324463E-02       3    3    2         0.1793236917E+00      0.4768600114E+00
          0                 3           1             5    3     2      -0.4390411788E-03       3    3    2        -0.1067343643E-01      0.2797218163E-01

    ------------------------------------------------
       NWT REQUIRED            3 OUTER ITERATIONS 
       AND A TOTAL OF          5 INNER ITERATIONS.
    ------------------------------------------------

 NO OUTPUT CONTROL FOR STRESS PERIOD   12   TIME STEP   51
 
 SOLVING FOR HEAD 
                                                   Max.-Head-Change                         Max.-Flux-Residual
  Residual-Control   Outer-Iter.   Inner-Iter.     Column Row Layer    Maximum-Head-Change  Column Row Layer    Maximum-Flux-Residual          L2-NORM 
          0                 1           2             5    3     2      -0.7885639737E-01       3    3    2        -0.1785404518E+01      0.4885317401E+01
          0                 2           2             5    3     2       0.7535164450E-02       3    3    2         0.1776489772E+00      0.4727401224E+00
          0                 3           1             5    3     2      -0.4298337495E-03       3    3    2        -0.1057360431E-01      0.2773572296E-01

    ------------------------------------------------
       NWT REQUIRED            3 OUTER ITERATIONS 
       AND A TOTAL OF          5 INNER ITERATIONS.
    ------------------------------------------------

 NO OUTPUT CONTROL FOR STRESS PERIOD   12   TIME STEP   52
 
 SOLVING FOR HEAD 
                                                   Max.-Head-Change                         Max.-Flux-Residual
  Residual-Control   Outer-Iter.   Inner-Iter.     Column Row Layer    Maximum-Head-Change  Column Row Layer    Maximum-Flux-Residual          L2-NORM 
          0                 1           2             5    3     2      -0.7724915474E-01       3    3    2        -0.1768873874E+01      0.4841877969E+01
          0                 2           2             5    3     2       0.7380866805E-02       3    3    2         0.1760025370E+00      0.4687116326E+00
          0                 3           1             5    3     2      -0.4210757240E-03       3    3    2        -0.1047544575E-01      0.2750880944E-01

    ------------------------------------------------
       NWT REQUIRED            3 OUTER ITERATIONS 
       AND A TOTAL OF          5 INNER ITERATIONS.
    ------------------------------------------------

 NO OUTPUT CONTROL FOR STRESS PERIOD   12   TIME STEP   53
 
 SOLVING FOR HEAD 
                                                   Max.-Head-Change                         Max.-Flux-Residual
  Residual-Control   Outer-Iter.   Inner-Iter.     Column Row Layer    Maximum-Head-Change  Column Row Layer    Maximum-Flux-Residual          L2-NORM 
          0                 1           2             5    3     2      -0.7570224082E-01       3    3    2        -0.1752638122E+01      0.4800000865E+01
          0                 2           2             5    3     2       0.7232246850E-02       3    3    2         0.1743852971E+00      0.4648002615E+00
          0                 3           1             5    3     2      -0.4124221159E-03       3    3    2        -0.1037901606E-01      0.2790481800E-01

    ------------------------------------------------
       NWT REQUIRED            3 OUTER ITERATIONS 
       AND A TOTAL OF          5 INNER ITERATIONS.
    ------------------------------------------------

 NO OUTPUT CONTROL FOR STRESS PERIOD   12   TIME STEP   54
 
 SOLVING FOR HEAD 
                                                   Max.-Head-Change                         Max.-Flux-Residual
  Residual-Control   Outer-Iter.   Inner-Iter.     Column Row Layer    Maximum-Head-Change  Column Row Layer    Maximum-Flux-Residual          L2-NORM 
          0                 1           2             5    3     2      -0.7421229819E-01       3    3    2        -0.1736665579E+01      0.4758547397E+01
          0                 2           2             5    3     2       0.7059084793E-02       3    3    2         0.1709871480E+00      0.4600137270E+00
          0                 3           1             5    3     2      -0.4024314339E-03       3    2    2        -0.1023905287E-01      0.2700036277E-01

    ------------------------------------------------
       NWT REQUIRED            3 OUTER ITERATIONS 
       AND A TOTAL OF          5 INNER ITERATIONS.
    ------------------------------------------------

 NO OUTPUT CONTROL FOR STRESS PERIOD   12   TIME STEP   55
 
 SOLVING FOR HEAD 
                                                   Max.-Head-Change                         Max.-Flux-Residual
  Residual-Control   Outer-Iter.   Inner-Iter.     Column Row Layer    Maximum-Head-Change  Column Row Layer    Maximum-Flux-Residual          L2-NORM 
          0                 1           2             5    3     2      -0.7313886306E-01       3    3    2        -0.1722186867E+01      0.4718888922E+01
          0                 2           2             5    3     2       0.6986124230E-02       3    3    2         0.1713520694E+00      0.4571096035E+00
          0                 3           1             5    3     2      -0.3982585722E-03       3    2    2        -0.1020347273E-01      0.2683632108E-01

    ------------------------------------------------
       NWT REQUIRED            3 OUTER ITERATIONS 
       AND A TOTAL OF          5 INNER ITERATIONS.
    ------------------------------------------------

 NO OUTPUT CONTROL FOR STRESS PERIOD   12   TIME STEP   56
 
 SOLVING FOR HEAD 
                                                   Max.-Head-Change                         Max.-Flux-Residual
  Residual-Control   Outer-Iter.   Inner-Iter.     Column Row Layer    Maximum-Head-Change  Column Row Layer    Maximum-Flux-Residual          L2-NORM 
          0                 1           2             5    3     2      -0.7205954871E-01       3    3    2        -0.1711161779E+01      0.4681962031E+01
          0                 2           2             5    3     2       0.6882630025E-02       3    3    2         0.1702552371E+00      0.4536548735E+00
          0                 3           1             5    3     2      -0.3923225776E-03       3    2    2        -0.1016726638E-01      0.2663789858E-01

    ------------------------------------------------
       NWT REQUIRED            3 OUTER ITERATIONS 
       AND A TOTAL OF          5 INNER ITERATIONS.
    ------------------------------------------------

 NO OUTPUT CONTROL FOR STRESS PERIOD   12   TIME STEP   57
 
 SOLVING FOR HEAD 
                                                   Max.-Head-Change                         Max.-Flux-Residual
  Residual-Control   Outer-Iter.   Inner-Iter.     Column Row Layer    Maximum-Head-Change  Column Row Layer    Maximum-Flux-Residual          L2-NORM 
          0                 1           2             5    3     2      -0.7100413325E-01       3    3    2        -0.1700036208E+01      0.4645694326E+01
          0                 2           2             5    3     2       0.6781418897E-02       3    3    2         0.1691481241E+00      0.4502714899E+00
          0                 3           1             5    3     2      -0.3865160530E-03       3    2    2        -0.1013046790E-01      0.2644378605E-01

    ------------------------------------------------
       NWT REQUIRED            3 OUTER ITERATIONS 
       AND A TOTAL OF          5 INNER ITERATIONS.
    ------------------------------------------------

 NO OUTPUT CONTROL FOR STRESS PERIOD   12   TIME STEP   58
 
 SOLVING FOR HEAD 
                                                   Max.-Head-Change                         Max.-Flux-Residual
  Residual-Control   Outer-Iter.   Inner-Iter.     Column Row Layer    Maximum-Head-Change  Column Row Layer    Maximum-Flux-Residual          L2-NORM 
          0                 1           2             5    3     2      -0.6997277609E-01       3    3    2        -0.1688840201E+01      0.4610466803E+01
          0                 2           2             5    3     2       0.6682510479E-02       3    2    2         0.1682185418E+00      0.4469441990E+00
          0                 3           1             5    3     2      -0.3808390888E-03       3    2    2        -0.1009313234E-01      0.2625229347E-01

    ------------------------------------------------
       NWT REQUIRED            3 OUTER ITERATIONS 
       AND A TOTAL OF          5 INNER ITERATIONS.
    ------------------------------------------------

 NO OUTPUT CONTROL FOR STRESS PERIOD   12   TIME STEP   59
 
 SOLVING FOR HEAD 
                                                   Max.-Head-Change                         Max.-Flux-Residual
  Residual-Control   Outer-Iter.   Inner-Iter.     Column Row Layer    Maximum-Head-Change  Column Row Layer    Maximum-Flux-Residual          L2-NORM 
          0                 1           2             5    3     2      -0.6896553936E-01       3    3    2        -0.1677593217E+01      0.4576212647E+01
          0                 2           2             5    3     2       0.6586023868E-02       3    2    2         0.1675873029E+00      0.4436786463E+00
          0                 3           1             5    3     2      -0.3754082302E-03       3    2    2        -0.1005525822E-01      0.2606342023E-01

    ------------------------------------------------
       NWT REQUIRED            3 OUTER ITERATIONS 
       AND A TOTAL OF          5 INNER ITERATIONS.
    ------------------------------------------------

 NO OUTPUT CONTROL FOR STRESS PERIOD   12   TIME STEP   60
 
 SOLVING FOR HEAD 
                                                   Max.-Head-Change                         Max.-Flux-Residual
  Residual-Control   Outer-Iter.   Inner-Iter.     Column Row Layer    Maximum-Head-Change  Column Row Layer    Maximum-Flux-Residual          L2-NORM 
          0                 1           2             5    3     2      -0.6798146025E-01       3    2    2        -0.1669507469E+01      0.4542825564E+01
          0                 2           2             5    3     2       0.6491752657E-02       3    2    2         0.1669483084E+00      0.4404720018E+00
          0                 3           1             5    3     2      -0.3699953521E-03       3    2    2        -0.1001691873E-01      0.2587797335E-01

    ------------------------------------------------
       NWT REQUIRED            3 OUTER ITERATIONS 
       AND A TOTAL OF          5 INNER ITERATIONS.
    ------------------------------------------------

 NO OUTPUT CONTROL FOR STRESS PERIOD   12   TIME STEP   61
 
 SOLVING FOR HEAD 
                                                   Max.-Head-Change                         Max.-Flux-Residual
  Residual-Control   Outer-Iter.   Inner-Iter.     Column Row Layer    Maximum-Head-Change  Column Row Layer    Maximum-Flux-Residual          L2-NORM 
          0                 1           2             5    3     2      -0.6701996626E-01       3    2    2        -0.1663043053E+01      0.4510175305E+01
          0                 2           2             5    3     2       0.6399430578E-02       3    2    2         0.1663018488E+00      0.4373905429E+00
          0                 3           1             5    3     2      -0.3645932214E-03       3    2    2        -0.9978131327E-02      0.2569755710E-01

    ------------------------------------------------
       NWT REQUIRED            3 OUTER ITERATIONS 
       AND A TOTAL OF          5 INNER ITERATIONS.
    ------------------------------------------------

 NO OUTPUT CONTROL FOR STRESS PERIOD   12   TIME STEP   62
 
 SOLVING FOR HEAD 
                                                   Max.-Head-Change                         Max.-Flux-Residual
  Residual-Control   Outer-Iter.   Inner-Iter.     Column Row Layer    Maximum-Head-Change  Column Row Layer    Maximum-Flux-Residual          L2-NORM 
          0                 1           2             5    3     2      -0.6608163889E-01       3    2    2        -0.1656509605E+01      0.4477691085E+01
          0                 2           2             5    3     2       0.6309325752E-02       3    2    2         0.1656484880E+00      0.4343241027E+00
          0                 3           1             5    3     2      -0.3594217199E-03       3    2    2        -0.9938929833E-02      0.2551962133E-01

    ------------------------------------------------
       NWT REQUIRED            3 OUTER ITERATIONS 
       AND A TOTAL OF          5 INNER ITERATIONS.
    ------------------------------------------------

 NO OUTPUT CONTROL FOR STRESS PERIOD   12   TIME STEP   63
 
 SOLVING FOR HEAD 
                                                   Max.-Head-Change                         Max.-Flux-Residual
  Residual-Control   Outer-Iter.   Inner-Iter.     Column Row Layer    Maximum-Head-Change  Column Row Layer    Maximum-Flux-Residual          L2-NORM 
          0                 1           2             5    3     2      -0.6516551728E-01       3    2    2        -0.1649912860E+01      0.4445686994E+01
          0                 2           2             5    3     2       0.6221670171E-02       3    2    2         0.1649887994E+00      0.4312864735E+00
          0                 3           1             5    3     2      -0.3543908519E-03       3    2    2        -0.9899348657E-02      0.2534396153E-01

    ------------------------------------------------
       NWT REQUIRED            3 OUTER ITERATIONS 
       AND A TOTAL OF          5 INNER ITERATIONS.
    ------------------------------------------------

 NO OUTPUT CONTROL FOR STRESS PERIOD   12   TIME STEP   64
 
 SOLVING FOR HEAD 
                                                   Max.-Head-Change                         Max.-Flux-Residual
  Residual-Control   Outer-Iter.   Inner-Iter.     Column Row Layer    Maximum-Head-Change  Column Row Layer    Maximum-Flux-Residual          L2-NORM 
          0                 1           2             5    3     2      -0.6427024864E-01       3    2    2        -0.1643261477E+01      0.4414340703E+01
          0                 2           2             5    3     2       0.6135585320E-02       3    2    2         0.1643236487E+00      0.4283162178E+00
          0                 3           1             3    2     2      -0.3510117634E-03       3    2    2        -0.9859439736E-02      0.2517192501E-01

    ------------------------------------------------
       NWT REQUIRED            3 OUTER ITERATIONS 
       AND A TOTAL OF          5 INNER ITERATIONS.
    ------------------------------------------------

 NO OUTPUT CONTROL FOR STRESS PERIOD   12   TIME STEP   65
 
 SOLVING FOR HEAD 
                                                   Max.-Head-Change                         Max.-Flux-Residual
  Residual-Control   Outer-Iter.   Inner-Iter.     Column Row Layer    Maximum-Head-Change  Column Row Layer    Maximum-Flux-Residual          L2-NORM 
          0                 1           2             5    3     2      -0.6339668118E-01       3    2    2        -0.1636554323E+01      0.4383618373E+01
          0                 2           2             5    3     2       0.6050418159E-02       3    2    2         0.1636529229E+00      0.4244852449E+00
          0                 3           1             3    2     2      -0.3495608845E-03       3    2    2        -0.9819196333E-02      0.2493584429E-01

    ------------------------------------------------
       NWT REQUIRED            3 OUTER ITERATIONS 
       AND A TOTAL OF          5 INNER ITERATIONS.
    ------------------------------------------------

 NO OUTPUT CONTROL FOR STRESS PERIOD   12   TIME STEP   66
 
 SOLVING FOR HEAD 
                                                   Max.-Head-Change                         Max.-Flux-Residual
  Residual-Control   Outer-Iter.   Inner-Iter.     Column Row Layer    Maximum-Head-Change  Column Row Layer    Maximum-Flux-Residual          L2-NORM 
          0                 1           2             5    3     2      -0.6255063414E-01       3    2    2        -0.1629804237E+01      0.4354138191E+01
          0                 2           2             3    2     2       0.6021606187E-02       3    2    2         0.1629779075E+00      0.4224742582E+00
          0                 3           1             3    2     2      -0.3481077627E-03       3    2    2        -0.9778695426E-02      0.2482056625E-01

    ------------------------------------------------
       NWT REQUIRED            3 OUTER ITERATIONS 
       AND A TOTAL OF          5 INNER ITERATIONS.
    ------------------------------------------------

 NO OUTPUT CONTROL FOR STRESS PERIOD   12   TIME STEP   67
 
 SOLVING FOR HEAD 
                                                   Max.-Head-Change                         Max.-Flux-Residual
  Residual-Control   Outer-Iter.   Inner-Iter.     Column Row Layer    Maximum-Head-Change  Column Row Layer    Maximum-Flux-Residual          L2-NORM 
          0                 1           2             3    2     2      -0.6223769329E-01       3    2    2        -0.1623012158E+01      0.4325989471E+01
          0                 2           2             3    2     2       0.5996290646E-02       3    2    2         0.1622986947E+00      0.4197793022E+00
          0                 3           1             3    2     2      -0.3466444547E-03       3    2    2        -0.9737942715E-02      0.2466507655E-01

    ------------------------------------------------
       NWT REQUIRED            3 OUTER ITERATIONS 
       AND A TOTAL OF          5 INNER ITERATIONS.
    ------------------------------------------------

 NO OUTPUT CONTROL FOR STRESS PERIOD   12   TIME STEP   68
 
 SOLVING FOR HEAD 
                                                   Max.-Head-Change                         Max.-Flux-Residual
  Residual-Control   Outer-Iter.   Inner-Iter.     Column Row Layer    Maximum-Head-Change  Column Row Layer    Maximum-Flux-Residual          L2-NORM 
          0                 1           2             3    2     2      -0.6197404129E-01       3    2    2        -0.1616191120E+01      0.4298329037E+01
          0                 2           2             3    2     2       0.5970889556E-02       3    2    2         0.1616165881E+00      0.4171271247E+00
          0                 3           1             3    2     2      -0.3451760694E-03       3    2    2        -0.9697016352E-02      0.2451154693E-01

    ------------------------------------------------
       NWT REQUIRED            3 OUTER ITERATIONS 
       AND A TOTAL OF          5 INNER ITERATIONS.
    ------------------------------------------------

 NO OUTPUT CONTROL FOR STRESS PERIOD   12   TIME STEP   69
 
 SOLVING FOR HEAD 
                                                   Max.-Head-Change                         Max.-Flux-Residual
  Residual-Control   Outer-Iter.   Inner-Iter.     Column Row Layer    Maximum-Head-Change  Column Row Layer    Maximum-Flux-Residual          L2-NORM 
          0                 1           2             3    2     2      -0.6170948072E-01       3    2    2        -0.1609340936E+01      0.4271288130E+01
          0                 2           2             3    2     2       0.5945400822E-02       3    2    2         0.1609315690E+00      0.4145413953E+00
          0                 3           1             3    2     2      -0.3437026166E-03       3    2    2        -0.9655915219E-02      0.2436027804E-01

    ------------------------------------------------
       NWT REQUIRED            3 OUTER ITERATIONS 
       AND A TOTAL OF          5 INNER ITERATIONS.
    ------------------------------------------------

 NO OUTPUT CONTROL FOR STRESS PERIOD   12   TIME STEP   70
 
 SOLVING FOR HEAD 
                                                   Max.-Head-Change                         Max.-Flux-Residual
  Residual-Control   Outer-Iter.   Inner-Iter.     Column Row Layer    Maximum-Head-Change  Column Row Layer    Maximum-Flux-Residual          L2-NORM 
          0                 1           2             3    2     2      -0.6144443720E-01       3    2    2        -0.1602473349E+01      0.4244808234E+01
          0                 2           2             3    2     2       0.5919865467E-02       3    2    2         0.1602448112E+00      0.4119820783E+00
          0                 3           1             3    2     2      -0.3422265352E-03       3    2    2        -0.9614709747E-02      0.2421173407E-01

    ------------------------------------------------
       NWT REQUIRED            3 OUTER ITERATIONS 
       AND A TOTAL OF          5 INNER ITERATIONS.
    ------------------------------------------------

 NO OUTPUT CONTROL FOR STRESS PERIOD   12   TIME STEP   71
 
 SOLVING FOR HEAD 
                                                   Max.-Head-Change                         Max.-Flux-Residual
  Residual-Control   Outer-Iter.   Inner-Iter.     Column Row Layer    Maximum-Head-Change  Column Row Layer    Maximum-Flux-Residual          L2-NORM 
          0                 1           2             3    2     2      -0.6117896980E-01       3    2    2        -0.1595590162E+01      0.4218721152E+01
          0                 2           2             3    2     2       0.5894289122E-02       3    2    2         0.1595564950E+00      0.4094606402E+00
          0                 3           1             3    2     2      -0.3407479847E-03       3    2    2        -0.9573410764E-02      0.2406486252E-01

    ------------------------------------------------
       NWT REQUIRED            3 OUTER ITERATIONS 
       AND A TOTAL OF          5 INNER ITERATIONS.
    ------------------------------------------------

 NO OUTPUT CONTROL FOR STRESS PERIOD   12   TIME STEP   72
 
 SOLVING FOR HEAD 
                                                   Max.-Head-Change                         Max.-Flux-Residual
  Residual-Control   Outer-Iter.   Inner-Iter.     Column Row Layer    Maximum-Head-Change  Column Row Layer    Maximum-Flux-Residual          L2-NORM 
          0                 1           2             3    2     2      -0.6091312003E-01       3    2    2        -0.1588692907E+01      0.4193414545E+01
          0                 2           2             3    2     2       0.5868675945E-02       3    2    2         0.1588667736E+00      0.4070411617E+00
          0                 3           1             3    2     2      -0.3392673113E-03       3    2    2        -0.9532027446E-02      0.2392228058E-01

    ------------------------------------------------
       NWT REQUIRED            3 OUTER ITERATIONS 
       AND A TOTAL OF          5 INNER ITERATIONS.
    ------------------------------------------------

 NO OUTPUT CONTROL FOR STRESS PERIOD   12   TIME STEP   73
 
 SOLVING FOR HEAD 
                                                   Max.-Head-Change                         Max.-Flux-Residual
  Residual-Control   Outer-Iter.   Inner-Iter.     Column Row Layer    Maximum-Head-Change  Column Row Layer    Maximum-Flux-Residual          L2-NORM 
          0                 1           2             3    2     2      -0.6064726639E-01       3    2    2        -0.1581791893E+01      0.4168131342E+01
          0                 2           2             3    2     2       0.5843062134E-02       3    2    2         0.1581766775E+00      0.4046092096E+00
          0                 3           1             3    2     2      -0.3377865982E-03       3    2    2        -0.9490621632E-02      0.2378041162E-01

    ------------------------------------------------
       NWT REQUIRED            3 OUTER ITERATIONS 
       AND A TOTAL OF          5 INNER ITERATIONS.
    ------------------------------------------------

 NO OUTPUT CONTROL FOR STRESS PERIOD   12   TIME STEP   74
 
 SOLVING FOR HEAD 
                                                   Max.-Head-Change                         Max.-Flux-Residual
  Residual-Control   Outer-Iter.   Inner-Iter.     Column Row Layer    Maximum-Head-Change  Column Row Layer    Maximum-Flux-Residual          L2-NORM 
          0                 1           2             3    2     2      -0.6038142579E-01       3    2    2        -0.1574887715E+01      0.4143062504E+01
          0                 2           2             3    2     2       0.5817449426E-02       3    2    2         0.1574862662E+00      0.4021930016E+00
          0                 3           1             3    2     2      -0.3363058936E-03       3    2    2        -0.9449196905E-02      0.2363970150E-01

    ------------------------------------------------
       NWT REQUIRED            3 OUTER ITERATIONS 
       AND A TOTAL OF          5 INNER ITERATIONS.
    ------------------------------------------------

 NO OUTPUT CONTROL FOR STRESS PERIOD   12   TIME STEP   75
 
 SOLVING FOR HEAD 
                                                   Max.-Head-Change                         Max.-Flux-Residual
  Residual-Control   Outer-Iter.   Inner-Iter.     Column Row Layer    Maximum-Head-Change  Column Row Layer    Maximum-Flux-Residual          L2-NORM 
          0                 1           2             3    2     2      -0.6011571904E-01       3    2    2        -0.1567983883E+01      0.4118474422E+01
          0                 2           2             3    2     2       0.5791849524E-02       3    2    2         0.1567958906E+00      0.3993440849E+00
          0                 3           1             3    2     2      -0.3348259733E-03       3    2    2        -0.9407774310E-02      0.2347230480E-01

    ------------------------------------------------
       NWT REQUIRED            3 OUTER ITERATIONS 
       AND A TOTAL OF          5 INNER ITERATIONS.
    ------------------------------------------------

 NO OUTPUT CONTROL FOR STRESS PERIOD   12   TIME STEP   76
 
 SOLVING FOR HEAD 
                                                   Max.-Head-Change                         Max.-Flux-Residual
  Residual-Control   Outer-Iter.   Inner-Iter.     Column Row Layer    Maximum-Head-Change  Column Row Layer    Maximum-Flux-Residual          L2-NORM 
          0                 1           2             3    2     2      -0.5985014688E-01       3    2    2        -0.1561080461E+01      0.4094468071E+01
          0                 2           2             3    2     2       0.5766262484E-02       3    2    2         0.1561055570E+00      0.3975117181E+00
          0                 3           1             3    2     2      -0.3333467552E-03       3    2    2        -0.9366354215E-02      0.2336670508E-01

    ------------------------------------------------
       NWT REQUIRED            3 OUTER ITERATIONS 
       AND A TOTAL OF          5 INNER ITERATIONS.
    ------------------------------------------------

 NO OUTPUT CONTROL FOR STRESS PERIOD   12   TIME STEP   77
 
 SOLVING FOR HEAD 
                                                   Max.-Head-Change                         Max.-Flux-Residual
  Residual-Control   Outer-Iter.   Inner-Iter.     Column Row Layer    Maximum-Head-Change  Column Row Layer    Maximum-Flux-Residual          L2-NORM 
          0                 1           2             3    2     2      -0.5958503507E-01       3    2    2        -0.1554186685E+01      0.4070988395E+01
          0                 2           2             3    2     2       0.5740719593E-02       3    2    2         0.1554161888E+00      0.3952460058E+00
          0                 3           1             3    2     2      -0.3318700585E-03       3    2    2        -0.9324992041E-02      0.2323480455E-01

    ------------------------------------------------
       NWT REQUIRED            3 OUTER ITERATIONS 
       AND A TOTAL OF          5 INNER ITERATIONS.
    ------------------------------------------------

 NO OUTPUT CONTROL FOR STRESS PERIOD   12   TIME STEP   78
 
 SOLVING FOR HEAD 
                                                   Max.-Head-Change                         Max.-Flux-Residual
  Residual-Control   Outer-Iter.   Inner-Iter.     Column Row Layer    Maximum-Head-Change  Column Row Layer    Maximum-Flux-Residual          L2-NORM 
          0                 1           2             3    2     2      -0.5932036181E-01       3    2    2        -0.1547301790E+01      0.4047981361E+01
          0                 2           2             3    2     2       0.5715219055E-02       3    2    2         0.1547277095E+00      0.3929760760E+00
          0                 3           1             3    2     2      -0.3303958459E-03       3    2    2        -0.9283683205E-02      0.2309848212E-01

    ------------------------------------------------
       NWT REQUIRED            3 OUTER ITERATIONS 
       AND A TOTAL OF          5 INNER ITERATIONS.
    ------------------------------------------------

 NO OUTPUT CONTROL FOR STRESS PERIOD   12   TIME STEP   79
 
 SOLVING FOR HEAD 
                                                   Max.-Head-Change                         Max.-Flux-Residual
  Residual-Control   Outer-Iter.   Inner-Iter.     Column Row Layer    Maximum-Head-Change  Column Row Layer    Maximum-Flux-Residual          L2-NORM 
          0                 1           2             3    2     2      -0.5905621495E-01       3    2    2        -0.1540428278E+01      0.4025980554E+01
          0                 2           2             3    2     2       0.5689768984E-02       3    2    2         0.1540403693E+00      0.3908126516E+00
          0                 3           1             3    2     2      -0.3289244611E-03       3    2    2        -0.9242442689E-02      0.2297035545E-01

    ------------------------------------------------
       NWT REQUIRED            3 OUTER ITERATIONS 
       AND A TOTAL OF          5 INNER ITERATIONS.
    ------------------------------------------------

 NO OUTPUT CONTROL FOR STRESS PERIOD   12   TIME STEP   80
 
 SOLVING FOR HEAD 
                                                   Max.-Head-Change                         Max.-Flux-Residual
  Residual-Control   Outer-Iter.   Inner-Iter.     Column Row Layer    Maximum-Head-Change  Column Row Layer    Maximum-Flux-Residual          L2-NORM 
          0                 1           2             3    2     2      -0.5879266410E-01       3    2    2        -0.1533568433E+01      0.4003901648E+01
          0                 2           2             3    2     2       0.5664376231E-02       3    2    2         0.1533543964E+00      0.3887343262E+00
          0                 3           1             3    2     2      -0.3274563655E-03       3    2    2        -0.9201284221E-02      0.2286471928E-01

    ------------------------------------------------
       NWT REQUIRED            3 OUTER ITERATIONS 
       AND A TOTAL OF          5 INNER ITERATIONS.
    ------------------------------------------------

 NO OUTPUT CONTROL FOR STRESS PERIOD   12   TIME STEP   81
 
 SOLVING FOR HEAD 
                                                   Max.-Head-Change                         Max.-Flux-Residual
  Residual-Control   Outer-Iter.   Inner-Iter.     Column Row Layer    Maximum-Head-Change  Column Row Layer    Maximum-Flux-Residual          L2-NORM 
          0                 1           2             3    2     2      -0.5852979051E-01       3    2    2        -0.1526724060E+01      0.3981857031E+01
          0                 2           2             3    2     2       0.5639048732E-02       3    2    2         0.1526699713E+00      0.3865856346E+00
          0                 3           1             3    2     2      -0.3259921894E-03       3    2    2        -0.9160218615E-02      0.2274788495E-01

    ------------------------------------------------
       NWT REQUIRED            3 OUTER ITERATIONS 
       AND A TOTAL OF          5 INNER ITERATIONS.
    ------------------------------------------------

 NO OUTPUT CONTROL FOR STRESS PERIOD   12   TIME STEP   82
 
 SOLVING FOR HEAD 
                                                   Max.-Head-Change                         Max.-Flux-Residual
  Residual-Control   Outer-Iter.   Inner-Iter.     Column Row Layer    Maximum-Head-Change  Column Row Layer    Maximum-Flux-Residual          L2-NORM 
          0                 1           2             3    2     2      -0.5826753686E-01       3    2    2        -0.1519894200E+01      0.3959984612E+01
          0                 2           2             3    2     2       0.5613780812E-02       3    2    2         0.1519869981E+00      0.3844831521E+00
          0                 3           1             3    2     2      -0.3245313079E-03       3    2    2        -0.9119240114E-02      0.2262486415E-01

    ------------------------------------------------
       NWT REQUIRED            3 OUTER ITERATIONS 
       AND A TOTAL OF          5 INNER ITERATIONS.
    ------------------------------------------------

 NO OUTPUT CONTROL FOR STRESS PERIOD   12   TIME STEP   83
 
 SOLVING FOR HEAD 
                                                   Max.-Head-Change                         Max.-Flux-Residual
  Residual-Control   Outer-Iter.   Inner-Iter.     Column Row Layer    Maximum-Head-Change  Column Row Layer    Maximum-Flux-Residual          L2-NORM 
          0                 1           2             3    2     2      -0.5800619797E-01       3    2    2        -0.1513086565E+01      0.3938499892E+01
          0                 2           2             3    2     2       0.5588601046E-02       3    2    2         0.1513062480E+00      0.3823993735E+00
          0                 3           1             3    2     2      -0.3230755919E-03       3    2    2        -0.9078394987E-02      0.2250298025E-01

    ------------------------------------------------
       NWT REQUIRED            3 OUTER ITERATIONS 
       AND A TOTAL OF          5 INNER ITERATIONS.
    ------------------------------------------------

 NO OUTPUT CONTROL FOR STRESS PERIOD   12   TIME STEP   84
 
 SOLVING FOR HEAD 
                                                   Max.-Head-Change                         Max.-Flux-Residual
  Residual-Control   Outer-Iter.   Inner-Iter.     Column Row Layer    Maximum-Head-Change  Column Row Layer    Maximum-Flux-Residual          L2-NORM 
          0                 1           2             3    2     2      -0.5774582435E-01       3    2    2        -0.1506302670E+01      0.3917369481E+01
          0                 2           2             3    2     2       0.5563514076E-02       3    2    2         0.1506278721E+00      0.3803385656E+00
          0                 3           1             3    2     2      -0.3216251260E-03       3    2    2        -0.9037692317E-02      0.2238055580E-01

    ------------------------------------------------
       NWT REQUIRED            3 OUTER ITERATIONS 
       AND A TOTAL OF          5 INNER ITERATIONS.
    ------------------------------------------------

 NO OUTPUT CONTROL FOR STRESS PERIOD   12   TIME STEP   85
 
 SOLVING FOR HEAD 
                                                   Max.-Head-Change                         Max.-Flux-Residual
  Residual-Control   Outer-Iter.   Inner-Iter.     Column Row Layer    Maximum-Head-Change  Column Row Layer    Maximum-Flux-Residual          L2-NORM 
          0                 1           2             3    2     2      -0.5748623493E-01       3    2    2        -0.1499537694E+01      0.3896368996E+01
          0                 2           2             3    2     2       0.5538502622E-02       3    2    2         0.1499513887E+00      0.3783110779E+00
          0                 3           1             3    2     2      -0.3201791372E-03       3    2    2        -0.8997103196E-02      0.2225949685E-01

    ------------------------------------------------
       NWT REQUIRED            3 OUTER ITERATIONS 
       AND A TOTAL OF          5 INNER ITERATIONS.
    ------------------------------------------------

 NO OUTPUT CONTROL FOR STRESS PERIOD   12   TIME STEP   86
 
 SOLVING FOR HEAD 
                                                   Max.-Head-Change                         Max.-Flux-Residual
  Residual-Control   Outer-Iter.   Inner-Iter.     Column Row Layer    Maximum-Head-Change  Column Row Layer    Maximum-Flux-Residual          L2-NORM 
          0                 1           2             3    2     2      -0.5722759405E-01       3    2    2        -0.1492796141E+01      0.3875807902E+01
          0                 2           2             3    2     2       0.5513582560E-02       3    2    2         0.1492772478E+00      0.3763111243E+00
          0                 3           1             3    2     2      -0.3187383843E-03       3    2    2        -0.8956654623E-02      0.2213974063E-01

    ------------------------------------------------
       NWT REQUIRED            3 OUTER ITERATIONS 
       AND A TOTAL OF          5 INNER ITERATIONS.
    ------------------------------------------------

 NO OUTPUT CONTROL FOR STRESS PERIOD   12   TIME STEP   87
 
 SOLVING FOR HEAD 
                                                   Max.-Head-Change                         Max.-Flux-Residual
  Residual-Control   Outer-Iter.   Inner-Iter.     Column Row Layer    Maximum-Head-Change  Column Row Layer    Maximum-Flux-Residual          L2-NORM 
          0                 1           2             3    2     2      -0.5696994581E-01       3    2    2        -0.1486079201E+01      0.3855608659E+01
          0                 2           2             3    2     2       0.5488757995E-02       3    2    2         0.1486055687E+00      0.3743294010E+00
          0                 3           1             3    2     2      -0.3173031470E-03       3    2    2        -0.8916353746E-02      0.2202238598E-01

    ------------------------------------------------
       NWT REQUIRED            3 OUTER ITERATIONS 
       AND A TOTAL OF          5 INNER ITERATIONS.
    ------------------------------------------------

 NO OUTPUT CONTROL FOR STRESS PERIOD   12   TIME STEP   88
 
 SOLVING FOR HEAD 
                                                   Max.-Head-Change                         Max.-Flux-Residual
  Residual-Control   Outer-Iter.   Inner-Iter.     Column Row Layer    Maximum-Head-Change  Column Row Layer    Maximum-Flux-Residual          L2-NORM 
          0                 1           2             3    2     2      -0.5671332629E-01       3    2    2        -0.1479388024E+01      0.3835584281E+01
          0                 2           2             3    2     2       0.5464032537E-02       3    2    2         0.1479364662E+00      0.3723899994E+00
          0                 3           1             3    2     2      -0.3158736436E-03       3    2    2        -0.8876207459E-02      0.2190747439E-01

    ------------------------------------------------
       NWT REQUIRED            3 OUTER ITERATIONS 
       AND A TOTAL OF          5 INNER ITERATIONS.
    ------------------------------------------------

 NO OUTPUT CONTROL FOR STRESS PERIOD   12   TIME STEP   89
 
 SOLVING FOR HEAD 
                                                   Max.-Head-Change                         Max.-Flux-Residual
  Residual-Control   Outer-Iter.   Inner-Iter.     Column Row Layer    Maximum-Head-Change  Column Row Layer    Maximum-Flux-Residual          L2-NORM 
          0                 1           2             3    2     2      -0.5645787960E-01       3    2    2        -0.1472726605E+01      0.3816004929E+01
          0                 2           2             3    2     2       0.5439419916E-02       3    2    2         0.1472703397E+00      0.3704672709E+00
          0                 3           1             3    2     2      -0.3144506415E-03       3    2    2        -0.8836239728E-02      0.2179330711E-01

    ------------------------------------------------
       NWT REQUIRED            3 OUTER ITERATIONS 
       AND A TOTAL OF          5 INNER ITERATIONS.
    ------------------------------------------------

 NO OUTPUT CONTROL FOR STRESS PERIOD   12   TIME STEP   90
 
 SOLVING FOR HEAD 
                                                   Max.-Head-Change                         Max.-Flux-Residual
  Residual-Control   Outer-Iter.   Inner-Iter.     Column Row Layer    Maximum-Head-Change  Column Row Layer    Maximum-Flux-Residual          L2-NORM 
          0                 1           2             3    2     2      -0.5620341569E-01       3    2    2        -0.1466089502E+01      0.3796607340E+01
          0                 2           2             3    2     2       0.5414902010E-02       3    2    2         0.1466066450E+00      0.3685616941E+00
          0                 3           1             3    2     2      -0.3130330931E-03       3    2    2        -0.8796417912E-02      0.2168103980E-01

    ------------------------------------------------
       NWT REQUIRED            3 OUTER ITERATIONS 
       AND A TOTAL OF          5 INNER ITERATIONS.
    ------------------------------------------------

 NO OUTPUT CONTROL FOR STRESS PERIOD   12   TIME STEP   91
 
 SOLVING FOR HEAD 
                                                   Max.-Head-Change                         Max.-Flux-Residual
  Residual-Control   Outer-Iter.   Inner-Iter.     Column Row Layer    Maximum-Head-Change  Column Row Layer    Maximum-Flux-Residual          L2-NORM 
          0                 1           2             3    2     2      -0.5595018997E-01       3    2    2        -0.1459484021E+01      0.3777610258E+01
          0                 2           2             3    2     2       0.5390503293E-02       3    2    2         0.1459461128E+00      0.3667044791E+00
          0                 3           1             3    2     2      -0.3116224276E-03       3    2    2        -0.8756785836E-02      0.2157000131E-01

    ------------------------------------------------
       NWT REQUIRED            3 OUTER ITERATIONS 
       AND A TOTAL OF          5 INNER ITERATIONS.
    ------------------------------------------------

 NO OUTPUT CONTROL FOR STRESS PERIOD   12   TIME STEP   92
 
 SOLVING FOR HEAD 
                                                   Max.-Head-Change                         Max.-Flux-Residual
  Residual-Control   Outer-Iter.   Inner-Iter.     Column Row Layer    Maximum-Head-Change  Column Row Layer    Maximum-Flux-Residual          L2-NORM 
          0                 1           2             3    2     2      -0.5569810899E-01       3    2    2        -0.1452907613E+01      0.3759542457E+01
          0                 2           2             3    2     2       0.5366215081E-02       3    2    2         0.1452884880E+00      0.3648661796E+00
          0                 3           1             3    2     2      -0.3102181539E-03       3    2    2        -0.8717328214E-02      0.2146010831E-01

    ------------------------------------------------
       NWT REQUIRED            3 OUTER ITERATIONS 
       AND A TOTAL OF          5 INNER ITERATIONS.
    ------------------------------------------------

 NO OUTPUT CONTROL FOR STRESS PERIOD   12   TIME STEP   93
 
 SOLVING FOR HEAD 
                                                   Max.-Head-Change                         Max.-Flux-Residual
  Residual-Control   Outer-Iter.   Inner-Iter.     Column Row Layer    Maximum-Head-Change  Column Row Layer    Maximum-Flux-Residual          L2-NORM 
          0                 1           2             3    2     2      -0.5544720543E-01       3    2    2        -0.1446360905E+01      0.3741116848E+01
          0                 2           2             3    2     2       0.5342039750E-02       3    2    2         0.1446338335E+00      0.3630354170E+00
          0                 3           1             3    2     2      -0.3088204077E-03       3    2    2        -0.8678048808E-02      0.2135150161E-01

    ------------------------------------------------
       NWT REQUIRED            3 OUTER ITERATIONS 
       AND A TOTAL OF          5 INNER ITERATIONS.
    ------------------------------------------------

 NO OUTPUT CONTROL FOR STRESS PERIOD   12   TIME STEP   94
 
 SOLVING FOR HEAD 
                                                   Max.-Head-Change                         Max.-Flux-Residual
  Residual-Control   Outer-Iter.   Inner-Iter.     Column Row Layer    Maximum-Head-Change  Column Row Layer    Maximum-Flux-Residual          L2-NORM 
          0                 1           2             3    2     2      -0.5519749465E-01       3    2    2        -0.1439844766E+01      0.3722849874E+01
          0                 2           2             3    2     2       0.5317979576E-02       3    2    2         0.1439822358E+00      0.3612211006E+00
          0                 3           1             3    2     2      -0.3074292662E-03       3    2    2        -0.8638952803E-02      0.2124365223E-01

    ------------------------------------------------
       NWT REQUIRED            3 OUTER ITERATIONS 
       AND A TOTAL OF          5 INNER ITERATIONS.
    ------------------------------------------------

 NO OUTPUT CONTROL FOR STRESS PERIOD   12   TIME STEP   95
 
 SOLVING FOR HEAD 
                                                   Max.-Head-Change                         Max.-Flux-Residual
  Residual-Control   Outer-Iter.   Inner-Iter.     Column Row Layer    Maximum-Head-Change  Column Row Layer    Maximum-Flux-Residual          L2-NORM 
          0                 1           2             3    2     2      -0.5494900008E-01       3    2    2        -0.1433359570E+01      0.3704432907E+01
          0                 2           2             3    2     2       0.5294036542E-02       3    2    2         0.1433337328E+00      0.3594239015E+00
          0                 3           1             3    2     2      -0.3060450080E-03       3    2    2        -0.8600042471E-02      0.2113802062E-01

    ------------------------------------------------
       NWT REQUIRED            3 OUTER ITERATIONS 
       AND A TOTAL OF          5 INNER ITERATIONS.
    ------------------------------------------------

 NO OUTPUT CONTROL FOR STRESS PERIOD   12   TIME STEP   96
 
 SOLVING FOR HEAD 
                                                   Max.-Head-Change                         Max.-Flux-Residual
  Residual-Control   Outer-Iter.   Inner-Iter.     Column Row Layer    Maximum-Head-Change  Column Row Layer    Maximum-Flux-Residual          L2-NORM 
          0                 1           2             3    2     2      -0.5470174147E-01       3    2    2        -0.1426905939E+01      0.3686517135E+01
          0                 2           2             3    2     2       0.5270212490E-02       3    2    2         0.1426883863E+00      0.3577405395E+00
          0                 3           1             3    2     2      -0.3046675516E-03       3    2    2        -0.8561321539E-02      0.2103432293E-01

    ------------------------------------------------
       NWT REQUIRED            3 OUTER ITERATIONS 
       AND A TOTAL OF          5 INNER ITERATIONS.
    ------------------------------------------------

 NO OUTPUT CONTROL FOR STRESS PERIOD   12   TIME STEP   97
 
 SOLVING FOR HEAD 
                                                   Max.-Head-Change                         Max.-Flux-Residual
  Residual-Control   Outer-Iter.   Inner-Iter.     Column Row Layer    Maximum-Head-Change  Column Row Layer    Maximum-Flux-Residual          L2-NORM 
          0                 1           2             3    2     2      -0.5445572964E-01       3    2    2        -0.1420484380E+01      0.3669211777E+01
          0                 2           2             3    2     2       0.5246508530E-02       3    2    2         0.1420462471E+00      0.3560828115E+00
          0                 3           1             3    2     2      -0.3032969529E-03       3    2    2        -0.8522793042E-02      0.2096170436E-01

    ------------------------------------------------
       NWT REQUIRED            3 OUTER ITERATIONS 
       AND A TOTAL OF          5 INNER ITERATIONS.
    ------------------------------------------------

 NO OUTPUT CONTROL FOR STRESS PERIOD   12   TIME STEP   98
 
 SOLVING FOR HEAD 
                                                   Max.-Head-Change                         Max.-Flux-Residual
  Residual-Control   Outer-Iter.   Inner-Iter.     Column Row Layer    Maximum-Head-Change  Column Row Layer    Maximum-Flux-Residual          L2-NORM 
          0                 1           2             3    2     2      -0.5421110024E-01       3    2    2        -0.1414098226E+01      0.3651622289E+01
          0                 2           2             3    2     2       0.5222937761E-02       3    2    2         0.1414076485E+00      0.3543805035E+00
          0                 3           1             3    2     2      -0.3019342127E-03       3    2    2        -0.8484476981E-02      0.2087139774E-01

    ------------------------------------------------
       NWT REQUIRED            3 OUTER ITERATIONS 
       AND A TOTAL OF          5 INNER ITERATIONS.
    ------------------------------------------------

 NO OUTPUT CONTROL FOR STRESS PERIOD   12   TIME STEP   99
 
 SOLVING FOR HEAD 
                                                   Max.-Head-Change                         Max.-Flux-Residual
  Residual-Control   Outer-Iter.   Inner-Iter.     Column Row Layer    Maximum-Head-Change  Column Row Layer    Maximum-Flux-Residual          L2-NORM 
          0                 1           2             3    2     2      -0.5396774321E-01       3    2    2        -0.1407744895E+01      0.3634343301E+01
          0                 2           2             3    2     2       0.5199489522E-02       3    2    2         0.1407723322E+00      0.3526806774E+00
          0                 3           1             3    2     2      -0.3005784900E-03       3    2    2        -0.8446357858E-02      0.2077035199E-01

    ------------------------------------------------
       NWT REQUIRED            3 OUTER ITERATIONS 
       AND A TOTAL OF          5 INNER ITERATIONS.
    ------------------------------------------------

 NO OUTPUT CONTROL FOR STRESS PERIOD   12   TIME STEP  100
 
 SOLVING FOR HEAD 
                                                   Max.-Head-Change                         Max.-Flux-Residual
  Residual-Control   Outer-Iter.   Inner-Iter.     Column Row Layer    Maximum-Head-Change  Column Row Layer    Maximum-Flux-Residual          L2-NORM 
          0                 1           2             3    2     2      -0.5372567142E-01       3    2    2        -0.1401424579E+01      0.3617362413E+01
          0                 2           2             3    2     2       0.5176165071E-02       3    2    2         0.1401403176E+00      0.3510831156E+00
          0                 3           1             3    2     2      -0.2992298569E-03       3    2    2        -0.8408436828E-02      0.2067273581E-01

    ------------------------------------------------
       NWT REQUIRED            3 OUTER ITERATIONS 
       AND A TOTAL OF          5 INNER ITERATIONS.
    ------------------------------------------------

 NO OUTPUT CONTROL FOR STRESS PERIOD   12   TIME STEP  101
 
 SOLVING FOR HEAD 
                                                   Max.-Head-Change                         Max.-Flux-Residual
  Residual-Control   Outer-Iter.   Inner-Iter.     Column Row Layer    Maximum-Head-Change  Column Row Layer    Maximum-Flux-Residual          L2-NORM 
          0                 1           2             3    2     2      -0.5348490258E-01       3    2    2        -0.1395137614E+01      0.3600748054E+01
          0                 2           2             3    2     2       0.5152966126E-02       3    2    2         0.1395116381E+00      0.3494423246E+00
          0                 3           1             3    2     2      -0.2978884896E-03       3    2    2        -0.8370715920E-02      0.2057386447E-01

    ------------------------------------------------
       NWT REQUIRED            3 OUTER ITERATIONS 
       AND A TOTAL OF          5 INNER ITERATIONS.
    ------------------------------------------------

 NO OUTPUT CONTROL FOR STRESS PERIOD   12   TIME STEP  102
 
 SOLVING FOR HEAD 
                                                   Max.-Head-Change                         Max.-Flux-Residual
  Residual-Control   Outer-Iter.   Inner-Iter.     Column Row Layer    Maximum-Head-Change  Column Row Layer    Maximum-Flux-Residual          L2-NORM 
          0                 1           2             3    2     2      -0.5324543912E-01       3    2    2        -0.1388884460E+01      0.3584375230E+01
          0                 2           2             3    2     2       0.5129892862E-02       3    2    2         0.1388863396E+00      0.3478144719E+00
          0                 3           1             3    2     2      -0.2965543927E-03       3    2    2        -0.8333197857E-02      0.2047643445E-01

    ------------------------------------------------
       NWT REQUIRED            3 OUTER ITERATIONS 
       AND A TOTAL OF          5 INNER ITERATIONS.
    ------------------------------------------------

 NO OUTPUT CONTROL FOR STRESS PERIOD   12   TIME STEP  103
 
 SOLVING FOR HEAD 
                                                   Max.-Head-Change                         Max.-Flux-Residual
  Residual-Control   Outer-Iter.   Inner-Iter.     Column Row Layer    Maximum-Head-Change  Column Row Layer    Maximum-Flux-Residual          L2-NORM 
          0                 1           2             3    2     2      -0.5300740068E-01       3    2    2        -0.1382668231E+01      0.3568109889E+01
          0                 2           2             3    2     2       0.5106956941E-02       3    2    2         0.1382647336E+00      0.3462113094E+00
          0                 3           1             3    2     2      -0.2952282877E-03       3    2    2        -0.8295901348E-02      0.2038006183E-01

    ------------------------------------------------
       NWT REQUIRED            3 OUTER ITERATIONS 
       AND A TOTAL OF          5 INNER ITERATIONS.
    ------------------------------------------------

 NO OUTPUT CONTROL FOR STRESS PERIOD   12   TIME STEP  104
 
 SOLVING FOR HEAD 
                                                   Max.-Head-Change                         Max.-Flux-Residual
  Residual-Control   Outer-Iter.   Inner-Iter.     Column Row Layer    Maximum-Head-Change  Column Row Layer    Maximum-Flux-Residual          L2-NORM 
          0                 1           2             3    2     2      -0.5277067921E-01       3    2    2        -0.1376485928E+01      0.3552118019E+01
          0                 2           2             3    2     2       0.5084147926E-02       3    2    2         0.1376465204E+00      0.3446142001E+00
          0                 3           1             3    2     2      -0.2939095478E-03       3    2    2        -0.8258808399E-02      0.2028464208E-01

    ------------------------------------------------
       NWT REQUIRED            3 OUTER ITERATIONS 
       AND A TOTAL OF          5 INNER ITERATIONS.
    ------------------------------------------------

 NO OUTPUT CONTROL FOR STRESS PERIOD   12   TIME STEP  105
 
 SOLVING FOR HEAD 
                                                   Max.-Head-Change                         Max.-Flux-Residual
  Residual-Control   Outer-Iter.   Inner-Iter.     Column Row Layer    Maximum-Head-Change  Column Row Layer    Maximum-Flux-Residual          L2-NORM 
          0                 1           2             3    2     2      -0.5253528090E-01       3    2    2        -0.1370337800E+01      0.3535984264E+01
          0                 2           2             3    2     2       0.5061466261E-02       3    2    2         0.1370317246E+00      0.3430154511E+00
          0                 3           1             3    2     2      -0.2925980620E-03       3    2    2        -0.8221920500E-02      0.2018896556E-01

    ------------------------------------------------
       NWT REQUIRED            3 OUTER ITERATIONS 
       AND A TOTAL OF          5 INNER ITERATIONS.
    ------------------------------------------------

 NO OUTPUT CONTROL FOR STRESS PERIOD   12   TIME STEP  106
 
 SOLVING FOR HEAD 
                                                   Max.-Head-Change                         Max.-Flux-Residual
  Residual-Control   Outer-Iter.   Inner-Iter.     Column Row Layer    Maximum-Head-Change  Column Row Layer    Maximum-Flux-Residual          L2-NORM 
          0                 1           2             3    2     2      -0.5230121086E-01       3    2    2        -0.1364224007E+01      0.3520069292E+01
          0                 2           2             3    2     2       0.5038912618E-02       3    2    2         0.1364203622E+00      0.3414302263E+00
          0                 3           1             3    2     2      -0.2912940638E-03       3    2    2        -0.8185238615E-02      0.2009412923E-01

    ------------------------------------------------
       NWT REQUIRED            3 OUTER ITERATIONS 
       AND A TOTAL OF          5 INNER ITERATIONS.
    ------------------------------------------------

 NO OUTPUT CONTROL FOR STRESS PERIOD   12   TIME STEP  107
 
 SOLVING FOR HEAD 
                                                   Max.-Head-Change                         Max.-Flux-Residual
  Residual-Control   Outer-Iter.   Inner-Iter.     Column Row Layer    Maximum-Head-Change  Column Row Layer    Maximum-Flux-Residual          L2-NORM 
          0                 1           2             3    2     2      -0.5206858382E-01       3    2    2        -0.1358147727E+01      0.3504363246E+01
          0                 2           2             3    2     2       0.5016497949E-02       3    2    2         0.1358127512E+00      0.3398632072E+00
          0                 3           1             3    2     2      -0.2899980179E-03       3    2    2        -0.8148781805E-02      0.2000020887E-01

    ------------------------------------------------
       NWT REQUIRED            3 OUTER ITERATIONS 
       AND A TOTAL OF          5 INNER ITERATIONS.
    ------------------------------------------------

 NO OUTPUT CONTROL FOR STRESS PERIOD   12   TIME STEP  108
 
 SOLVING FOR HEAD 
                                                   Max.-Head-Change                         Max.-Flux-Residual
  Residual-Control   Outer-Iter.   Inner-Iter.     Column Row Layer    Maximum-Head-Change  Column Row Layer    Maximum-Flux-Residual          L2-NORM 
          0                 1           2             3    2     2      -0.5183717485E-01       3    2    2        -0.1352102798E+01      0.3489109120E+01
          0                 2           2             3    2     2       0.4994243464E-02       3    2    2         0.1352082752E+00      0.3383763469E+00
          0                 3           1             3    2     2      -0.2887522640E-03       3    2    2        -0.8112513064E-02      0.1999101540E-01

    ------------------------------------------------
       NWT REQUIRED            3 OUTER ITERATIONS 
       AND A TOTAL OF          5 INNER ITERATIONS.
    ------------------------------------------------

 NO OUTPUT CONTROL FOR STRESS PERIOD   12   TIME STEP  109
 
 SOLVING FOR HEAD 
                                                   Max.-Head-Change                         Max.-Flux-Residual
  Residual-Control   Outer-Iter.   Inner-Iter.     Column Row Layer    Maximum-Head-Change  Column Row Layer    Maximum-Flux-Residual          L2-NORM 
          0                 1           2             3    2     2      -0.5160732772E-01       3    2    2        -0.1346098631E+01      0.3473662977E+01
          0                 2           2             3    2     2       0.4972961797E-02       3    2    2         0.1346078753E+00      0.3373829519E+00
          0                 3           1             3    2     2      -0.2875687709E-03       3    2    2        -0.8076488352E-02      0.1995918119E-01

    ------------------------------------------------
       NWT REQUIRED            3 OUTER ITERATIONS 
       AND A TOTAL OF          5 INNER ITERATIONS.
    ------------------------------------------------

 NO OUTPUT CONTROL FOR STRESS PERIOD   12   TIME STEP  110
 
 SOLVING FOR HEAD 
                                                   Max.-Head-Change                         Max.-Flux-Residual
  Residual-Control   Outer-Iter.   Inner-Iter.     Column Row Layer    Maximum-Head-Change  Column Row Layer    Maximum-Flux-Residual          L2-NORM 
          0                 1           2             3    2     2      -0.5137704933E-01       3    2    2        -0.1340103917E+01      0.3457915033E+01
          0                 2           2             3    2     2       0.4950815284E-02       3    2    2         0.1340084150E+00      0.3363979280E+00
          0                 3           1             3    2     2      -0.2862881136E-03       3    2    2        -0.8040520604E-02      0.1990007496E-01

    ------------------------------------------------
       NWT REQUIRED            3 OUTER ITERATIONS 
       AND A TOTAL OF          5 INNER ITERATIONS.
    ------------------------------------------------

 NO OUTPUT CONTROL FOR STRESS PERIOD   12   TIME STEP  111
 
 SOLVING FOR HEAD 
                                                   Max.-Head-Change                         Max.-Flux-Residual
  Residual-Control   Outer-Iter.   Inner-Iter.     Column Row Layer    Maximum-Head-Change  Column Row Layer    Maximum-Flux-Residual          L2-NORM 
          0                 1           2             3    2     2      -0.5114738036E-01       3    2    2        -0.1334124894E+01      0.3442421520E+01
          0                 2           2             3    2     2       0.4928683892E-02       3    2    2         0.1334105240E+00      0.3348458950E+00
          0                 3           1             3    2     2      -0.2850083316E-03       3    2    2        -0.8004647043E-02      0.1980631784E-01

    ------------------------------------------------
       NWT REQUIRED            3 OUTER ITERATIONS 
       AND A TOTAL OF          5 INNER ITERATIONS.
    ------------------------------------------------

 NO OUTPUT CONTROL FOR STRESS PERIOD   12   TIME STEP  112
 
 SOLVING FOR HEAD 
                                                   Max.-Head-Change                         Max.-Flux-Residual
  Residual-Control   Outer-Iter.   Inner-Iter.     Column Row Layer    Maximum-Head-Change  Column Row Layer    Maximum-Flux-Residual          L2-NORM 
          0                 1           2             3    2     2      -0.5091830072E-01       3    2    2        -0.1328159815E+01      0.3427136256E+01
          0                 2           2             3    2     2       0.4906609300E-02       3    2    2         0.1328140277E+00      0.3333148806E+00
          0                 3           1             3    2     2      -0.2837318344E-03       3    2    2        -0.7968857173E-02      0.1971426254E-01

    ------------------------------------------------
       NWT REQUIRED            3 OUTER ITERATIONS 
       AND A TOTAL OF          5 INNER ITERATIONS.
    ------------------------------------------------

 NO OUTPUT CONTROL FOR STRESS PERIOD   12   TIME STEP  113
 
 SOLVING FOR HEAD 
                                                   Max.-Head-Change                         Max.-Flux-Residual
  Residual-Control   Outer-Iter.   Inner-Iter.     Column Row Layer    Maximum-Head-Change  Column Row Layer    Maximum-Flux-Residual          L2-NORM 
          0                 1           2             3    2     2      -0.5068985950E-01       3    2    2        -0.1322210032E+01      0.3412067900E+01
          0                 2           2             3    2     2       0.4884596237E-02       3    2    2         0.1322190613E+00      0.3317983061E+00
          0                 3           1             3    2     2      -0.2824588948E-03       3    2    2        -0.7933159086E-02      0.1962275011E-01

    ------------------------------------------------
       NWT REQUIRED            3 OUTER ITERATIONS 
       AND A TOTAL OF          5 INNER ITERATIONS.
    ------------------------------------------------

 NO OUTPUT CONTROL FOR STRESS PERIOD   12   TIME STEP  114
 
 SOLVING FOR HEAD 
                                                   Max.-Head-Change                         Max.-Flux-Residual
  Residual-Control   Outer-Iter.   Inner-Iter.     Column Row Layer    Maximum-Head-Change  Column Row Layer    Maximum-Flux-Residual          L2-NORM 
          0                 1           2             3    2     2      -0.5046209638E-01       3    2    2        -0.1316276816E+01      0.3397172715E+01
          0                 2           2             3    2     2       0.4862648526E-02       3    2    2         0.1316257519E+00      0.3302979475E+00
          0                 3           1             3    2     2      -0.2811897343E-03       3    2    2        -0.7897560434E-02      0.1953216382E-01

    ------------------------------------------------
       NWT REQUIRED            3 OUTER ITERATIONS 
       AND A TOTAL OF          5 INNER ITERATIONS.
    ------------------------------------------------

 NO OUTPUT CONTROL FOR STRESS PERIOD   12   TIME STEP  115
 
 SOLVING FOR HEAD 
                                                   Max.-Head-Change                         Max.-Flux-Residual
  Residual-Control   Outer-Iter.   Inner-Iter.     Column Row Layer    Maximum-Head-Change  Column Row Layer    Maximum-Flux-Residual          L2-NORM 
          0                 1           2             3    2     2      -0.5023517265E-01       3    2    2        -0.1310364238E+01      0.3382455798E+01
          0                 2           2             3    2     2       0.4840781711E-02       3    2    2         0.1310345065E+00      0.3288245856E+00
          0                 3           1             3    2     2      -0.2799252515E-03       3    2    2        -0.7862085606E-02      0.1944281612E-01

    ------------------------------------------------
       NWT REQUIRED            3 OUTER ITERATIONS 
       AND A TOTAL OF          5 INNER ITERATIONS.
    ------------------------------------------------

 NO OUTPUT CONTROL FOR STRESS PERIOD   12   TIME STEP  116
 
 SOLVING FOR HEAD 
                                                   Max.-Head-Change                         Max.-Flux-Residual
  Residual-Control   Outer-Iter.   Inner-Iter.     Column Row Layer    Maximum-Head-Change  Column Row Layer    Maximum-Flux-Residual          L2-NORM 
          0                 1           2             3    2     2      -0.5000901207E-01       3    2    2        -0.1304470401E+01      0.3367961001E+01
          0                 2           2             3    2     2       0.4818988443E-02       3    2    2         0.1304451356E+00      0.3273602452E+00
          0                 3           1             3    2     2      -0.2786650209E-03       3    2    2        -0.7826723232E-02      0.1935407729E-01

    ------------------------------------------------
       NWT REQUIRED            3 OUTER ITERATIONS 
       AND A TOTAL OF          5 INNER ITERATIONS.
    ------------------------------------------------

 NO OUTPUT CONTROL FOR STRESS PERIOD   12   TIME STEP  117
 
 SOLVING FOR HEAD 
                                                   Max.-Head-Change                         Max.-Flux-Residual
  Residual-Control   Outer-Iter.   Inner-Iter.     Column Row Layer    Maximum-Head-Change  Column Row Layer    Maximum-Flux-Residual          L2-NORM 
          0                 1           2             3    2     2      -0.4978376573E-01       3    2    2        -0.1298599406E+01      0.3353514080E+01
          0                 2           2             3    2     2       0.4797283282E-02       3    2    2         0.1298580491E+00      0.3259068149E+00
          0                 3           1             3    2     2      -0.2774098860E-03       3    2    2        -0.7791497939E-02      0.1926616868E-01

    ------------------------------------------------
       NWT REQUIRED            3 OUTER ITERATIONS 
       AND A TOTAL OF          5 INNER ITERATIONS.
    ------------------------------------------------

 NO OUTPUT CONTROL FOR STRESS PERIOD   12   TIME STEP  118
 
 SOLVING FOR HEAD 
                                                   Max.-Head-Change                         Max.-Flux-Residual
  Residual-Control   Outer-Iter.   Inner-Iter.     Column Row Layer    Maximum-Head-Change  Column Row Layer    Maximum-Flux-Residual          L2-NORM 
          0                 1           2             3    2     2      -0.4955935242E-01       3    2    2        -0.1292749097E+01      0.3339576860E+01
          0                 2           2             3    2     2       0.4775658400E-02       3    2    2         0.1292730313E+00      0.3244872158E+00
          0                 3           1             3    2     2      -0.2761593926E-03       3    2    2        -0.7756396763E-02      0.1917927845E-01

    ------------------------------------------------
       NWT REQUIRED            3 OUTER ITERATIONS 
       AND A TOTAL OF          5 INNER ITERATIONS.
    ------------------------------------------------

 NO OUTPUT CONTROL FOR STRESS PERIOD   12   TIME STEP  119
 
 SOLVING FOR HEAD 
                                                   Max.-Head-Change                         Max.-Flux-Residual
  Residual-Control   Outer-Iter.   Inner-Iter.     Column Row Layer    Maximum-Head-Change  Column Row Layer    Maximum-Flux-Residual          L2-NORM 
          0                 1           2             3    2     2      -0.4933580351E-01       3    2    2        -0.1286920405E+01      0.3325539991E+01
          0                 2           2             3    2     2       0.4754116821E-02       3    2    2         0.1286901755E+00      0.3230706032E+00
          0                 3           1             3    2     2      -0.2749137165E-03       3    2    2        -0.7721425299E-02      0.1909315765E-01

    ------------------------------------------------
       NWT REQUIRED            3 OUTER ITERATIONS 
       AND A TOTAL OF          5 INNER ITERATIONS.
    ------------------------------------------------

 NO OUTPUT CONTROL FOR STRESS PERIOD   12   TIME STEP  120



 STREAM LISTING     PERIOD     12   STEP      120

 LAYER ROW COL. STREAM  RCH.  FLOW INTO     FLOW TO   FLOW OUT OF   OVRLND.     DIRECT     STREAM       STREAM     STREAM     STREAM   STREAMBED  STREAMBED
                SEG.NO.  NO.  STRM. RCH.    AQUIFER    STRM. RCH.    RUNOFF     PRECIP       ET          HEAD       DEPTH      WIDTH   CONDCTNC.   GRADIENT

   2    1    1     1     1    2.5000E+00  6.9073E-01   1.8093E+00  0.000E+00  0.000E+00  0.000E+00  1.09361E+03  5.644E-01  4.306E+00  1.938E-01  1.188E+00
   2    2    2     1     2    1.8093E+00  9.1724E-01   8.9203E-01  0.000E+00  0.000E+00  0.000E+00  1.08852E+03  4.592E-01  3.788E+00  2.652E-01  1.153E+00
   2    3    3     1     3    8.9203E-01  6.1141E-01   2.8062E-01  0.000E+00  0.000E+00  0.000E+00  1.08270E+03  2.785E-01  3.108E+00  1.865E-01  1.093E+00
   2    3    4     1     4    2.8062E-01  1.9077E-01   8.9854E-02  0.000E+00  0.000E+00  0.000E+00  1.07750E+03  9.262E-02  1.111E+00  6.168E-02  1.031E+00
   2    4    5     2     1    0.0000E+00  0.0000E+00   0.0000E+00  0.000E+00  0.000E+00  0.000E+00  1.07193E+03  0.000E+00  1.200E+01  7.800E-01  1.000E+00
   2    5    6     2     2    0.0000E+00  0.0000E+00   0.0000E+00  0.000E+00  0.000E+00  0.000E+00  1.06651E+03  0.000E+00  1.200E+01  6.000E-01  1.000E+00
   2    6    6     2     3    0.0000E+00  0.0000E+00   0.0000E+00  0.000E+00  0.000E+00  0.000E+00  1.06179E+03  0.000E+00  1.200E+01  6.000E-01  1.000E+00
   2    7    6     2     4    0.0000E+00  0.0000E+00   0.0000E+00  0.000E+00  0.000E+00  0.000E+00  1.05708E+03  0.000E+00  1.200E+01  6.000E-01  1.000E+00
   2    8    6     2     5    0.0000E+00  0.0000E+00   0.0000E+00  0.000E+00  0.000E+00  0.000E+00  1.05236E+03  0.000E+00  1.200E+01  6.000E-01  1.000E+00
   2    3    5     3     1    8.9854E-02  8.9854E-02   0.0000E+00  0.000E+00  0.000E+00  0.000E+00  1.07555E+03  0.000E+00  9.636E+00  7.227E-01  1.955E+00
   2    3    6     3     2    0.0000E+00  0.0000E+00   0.0000E+00  0.000E+00  0.000E+00  0.000E+00  1.07091E+03  0.000E+00  8.909E+00  6.682E-01  1.000E+00
   2    3    7     3     3    0.0000E+00  0.0000E+00   0.0000E+00  0.000E+00  0.000E+00  0.000E+00  1.06832E+03  0.000E+00  8.218E+00  5.547E-01  1.000E+00
   2    4    8     3     4    0.0000E+00  0.0000E+00   0.0000E+00  0.000E+00  0.000E+00  0.000E+00  1.06545E+03  0.000E+00  7.455E+00  6.709E-01  1.000E+00
   2    5    8     3     5    0.0000E+00  0.0000E+00   0.0000E+00  0.000E+00  0.000E+00  0.000E+00  1.06245E+03  0.000E+00  6.655E+00  4.991E-01  1.000E+00
   2    6    8     3     6    0.0000E+00  0.0000E+00   0.0000E+00  0.000E+00  0.000E+00  0.000E+00  1.06055E+03  0.000E+00  6.145E+00  1.844E-01  1.000E+00
   2    5   10     4     1    1.0000E+01  9.0525E-01   9.0947E+00  0.000E+00  0.000E+00  0.000E+00  1.07835E+03  6.210E-01  1.000E+01  2.500E-01  1.207E+00
   2    5    9     4     2    9.0947E+00  1.7835E+00   7.3113E+00  0.000E+00  0.000E+00  0.000E+00  1.07148E+03  5.670E-01  1.000E+01  5.000E-01  1.189E+00
   2    6    8     4     3    7.3113E+00  1.2257E+00   6.0855E+00  0.000E+00  0.000E+00  0.000E+00  1.06368E+03  5.021E-01  1.000E+01  3.500E-01  1.167E+00
   2    6    8     5     1    6.0855E+00  1.4716E+00   4.6139E+00  0.000E+00  0.000E+00  0.000E+00  1.05854E+03  5.396E-01  1.039E+01  4.158E-01  1.180E+00
   2    7    7     5     2    4.6139E+00  1.4897E+00   3.1242E+00  0.000E+00  0.000E+00  0.000E+00  1.05398E+03  4.817E-01  8.557E+00  4.279E-01  1.161E+00
   2    8    7     5     3    3.1242E+00  8.2855E-01   2.2957E+00  0.000E+00  0.000E+00  0.000E+00  1.04968E+03  4.253E-01  6.911E+00  2.419E-01  1.142E+00
   2    8    6     5     4    2.2957E+00  4.9455E-01   1.8011E+00  0.000E+00  0.000E+00  0.000E+00  1.04664E+03  3.856E-01  5.843E+00  1.461E-01  1.129E+00
   2    9    6     6     1    1.8011E+00  1.8011E+00   0.0000E+00  0.000E+00  0.000E+00  0.000E+00  1.04278E+03  5.669E-02  1.200E+01  6.000E-01  1.019E+00
   2   10    7     6     2    0.0000E+00  0.0000E+00   0.0000E+00  0.000E+00  0.000E+00  0.000E+00  1.03818E+03  0.000E+00  1.200E+01  6.000E-01  1.000E+00
   2   11    7     6     3    0.0000E+00  0.0000E+00   0.0000E+00  0.000E+00  0.000E+00  0.000E+00  1.03364E+03  0.000E+00  1.200E+01  6.000E-01  9.259E-01
   2   12    7     6     4    0.0000E+00  0.0000E+00   0.0000E+00  0.000E+00  0.000E+00  0.000E+00  1.02909E+03  0.000E+00  1.200E+01  6.000E-01  1.628E-01
   2   13    7     6     5    0.0000E+00 -7.6556E-01   7.6556E-01  0.000E+00  0.000E+00  0.000E+00  1.02601E+03  9.948E-02  1.200E+01  2.400E-01 -1.063E+00
   2   14    9     7     1    1.5000E+02  2.9617E+00   1.4704E+02  0.000E+00  0.000E+00  0.000E+00  1.03986E+03  2.283E+00  5.528E+01  5.591E+00  1.766E-01
   2   13    8     7     2    1.4704E+02  3.8632E+00   1.4318E+02  0.000E+00  0.000E+00  0.000E+00  1.03477E+03  2.265E+00  5.519E+01  6.140E+00  2.097E-01
   2   13    7     7     3    1.4318E+02  2.6121E+00   1.4056E+02  0.000E+00  0.000E+00  0.000E+00  1.02967E+03  2.248E+00  5.511E+01  5.573E+00  1.562E-01
   2   13    6     8     1    1.4133E+02  3.7110E-01   1.4098E+02  2.137E-02  0.000E+00  0.000E+00  1.02463E+03  2.753E+00  3.992E+01  4.068E+00  3.041E-02
   2   13    5     8     2    1.4098E+02 -3.0382E+00   1.4404E+02  2.137E-02  0.000E+00  0.000E+00  1.01839E+03  2.763E+00  4.007E+01  4.083E+00 -2.480E-01
   2   13    4     8     3    1.4404E+02 -5.8840E+00   1.4994E+02  2.137E-02  0.000E+00  0.000E+00  1.01217E+03  2.796E+00  4.053E+01  4.131E+00 -4.748E-01
   2   13    3     8     4    1.4994E+02 -6.2192E+00   1.5618E+02  2.137E-02  0.000E+00  0.000E+00  1.00596E+03  2.838E+00  4.116E+01  4.194E+00 -4.943E-01
   2   13    2     8     5    1.5618E+02 -3.5305E+00   1.5974E+02  2.137E-02  0.000E+00  0.000E+00  9.99747E+02  2.872E+00  4.164E+01  4.244E+00 -2.773E-01
   2   13    1     8     6    1.5974E+02 -2.1600E+00   1.6191E+02  1.282E-02  0.000E+00  0.000E+00  9.94766E+02  2.891E+00  4.193E+01  2.563E+00 -2.809E-01
   2    4    5     9     1    0.0000E+00  0.0000E+00   0.0000E+00  0.000E+00  0.000E+00  0.000E+00  1.06000E+03  0.000E+00  2.000E+01  2.000E-03  1.000E+00
   2    4    5    10     1    0.0000E+00  0.0000E+00   0.0000E+00  0.000E+00  0.000E+00  0.000E+00  1.08000E+03  0.000E+00  2.000E+01  2.000E-03  1.000E+00





UNSATURATED ZONE PACKAGE VOLUMETRIC BUDGET FOR  TIME STEP   120 STRESS PERIOD   12
  ------------------------------------------------------------------------------



     CUMULATIVE VOLUMES      L**3       RATES FOR THIS TIME STEP      L**3/T
     ------------------                 ------------------------

           IN:                                      IN:
           ---                                      ---
        INFILTRATION =  1807486100.2890          INFILTRATION =           8.4453

          OUT:                                     OUT:
          ----                                     ----
              UZF ET =  1724696520.0115                UZF ET =           8.3352
        UZF RECHARGE =   766357943.3909          UZF RECHARGE =           0.9317

            IN - OUT =  -683568363.1134              IN - OUT =          -0.8216

          STORAGE:                                 STORAGE:
          --------                                 --------
      STORAGE CHANGE =  -683583248.7056        STORAGE CHANGE =          -0.8215

 PERCENT DISCREPANCY IS DIFFERENCE BETWEEN IN-OUT MINUS CHANGE IN STORAGE
 DIVIDED BY THE AVERAGE OF IN AND OUT TIMES 100

 PERCENT DISCREPANCY =           0.00     PERCENT DISCREPANCY =          -0.00






1
  VOLUMETRIC BUDGET FOR ENTIRE MODEL AT END OF TIME STEP  120, STRESS PERIOD  12
  ------------------------------------------------------------------------------

     CUMULATIVE VOLUMES      L**3       RATES FOR THIS TIME STEP      L**3/T
     ------------------                 ------------------------

           IN:                                      IN:
           ---                                      ---
             STORAGE =   767117184.0000               STORAGE =          17.6326
       CONSTANT HEAD =           0.0000         CONSTANT HEAD =           0.0000
               WELLS =           0.0000                 WELLS =           0.0000
     HEAD DEP BOUNDS =    10727070.0000       HEAD DEP BOUNDS =           0.2153
      STREAM LEAKAGE =  2574206720.0000        STREAM LEAKAGE =          22.3081
       LAKE  SEEPAGE =           0.0000         LAKE  SEEPAGE =           0.0000
        UZF RECHARGE =   766357888.0000          UZF RECHARGE =           0.9317
               GW ET =           0.0000                 GW ET =           0.0000
     SURFACE LEAKAGE =           0.0000       SURFACE LEAKAGE =           0.0000

            TOTAL IN =  4118408704.0000              TOTAL IN =          41.0877

          OUT:                                     OUT:
          ----                                     ----
             STORAGE =  1923971712.0000               STORAGE =           3.1224
       CONSTANT HEAD =           0.0000         CONSTANT HEAD =           0.0000
               WELLS =   394200000.0000                 WELLS =           0.0000
     HEAD DEP BOUNDS =    14865205.0000       HEAD DEP BOUNDS =           0.2891
      STREAM LEAKAGE =   985959360.0000        STREAM LEAKAGE =          21.5974
       LAKE  SEEPAGE =           0.0000         LAKE  SEEPAGE =           0.0000
        UZF RECHARGE =           0.0000          UZF RECHARGE =           0.0000
               GW ET =   795159744.0000                 GW ET =          15.9623
     SURFACE LEAKAGE =    90291176.0000       SURFACE LEAKAGE =           0.1149

           TOTAL OUT =  4204447232.0000             TOTAL OUT =          41.0861

            IN - OUT =   -86038528.0000              IN - OUT =       1.5717E-03

 PERCENT DISCREPANCY =          -2.07     PERCENT DISCREPANCY =           0.00






         TIME SUMMARY AT END OF TIME STEP  120 IN STRESS PERIOD   12
                    SECONDS     MINUTES      HOURS       DAYS        YEARS
                    -----------------------------------------------------------
   TIME STEP LENGTH 1.75200E+05  2920.0      48.667      2.0278     5.55175E-03
 STRESS PERIOD TIME 2.10240E+07 3.50400E+05  5840.0      243.33     0.66621    
         TOTAL TIME 4.99320E+07 8.32200E+05  13870.      577.92      1.5822    
1

 Run end date and time (yyyy/mm/dd hh:mm:ss): 2017/08/05 19:49:47
 Elapsed run time:  1.787 Seconds

