                                  MODFLOW-NWT-SWR1 
      U.S. GEOLOGICAL SURVEY MODULAR FINITE-DIFFERENCE GROUNDWATER-FLOW MODEL
                             VERSION 1.1.4 4/01/2018
                    BASED ON MODFLOW-2005 VERSION 1.12.00 02/03/2017

 LIST FILE: Agwater1_low.lst
                         UNIT    9

 OPENING Agwater1.ba6
 FILE TYPE:BAS6   UNIT   75   STATUS:OLD    
 FORMAT:FORMATTED              ACCESS:SEQUENTIAL          

 OPENING Agwater1.upw
 FILE TYPE:UPW   UNIT    7   STATUS:OLD    
 FORMAT:FORMATTED              ACCESS:SEQUENTIAL          

 OPENING Agwater1.dis
 FILE TYPE:DIS   UNIT    8   STATUS:OLD    
 FORMAT:FORMATTED              ACCESS:SEQUENTIAL          

 OPENING Agwater1.nwt
 FILE TYPE:NWT   UNIT   13   STATUS:OLD    
 FORMAT:FORMATTED              ACCESS:SEQUENTIAL          

 OPENING Agwater1.oc
 FILE TYPE:OC   UNIT   14   STATUS:OLD    
 FORMAT:FORMATTED              ACCESS:SEQUENTIAL          

 OPENING Agwater1.sfr
 FILE TYPE:SFR   UNIT   15   STATUS:OLD    
 FORMAT:FORMATTED              ACCESS:SEQUENTIAL          

 OPENING Agwater1.ghb
 FILE TYPE:GHB   UNIT   17   STATUS:OLD    
 FORMAT:FORMATTED              ACCESS:SEQUENTIAL          

 OPENING Agwater1_low.uzf
 FILE TYPE:UZF   UNIT   19   STATUS:OLD    
 FORMAT:FORMATTED              ACCESS:SEQUENTIAL          

 OPENING Agwater1.gag
 FILE TYPE:GAGE   UNIT   32   STATUS:OLD    
 FORMAT:FORMATTED              ACCESS:SEQUENTIAL          

 OPENING seg1.tab
 FILE TYPE:DATA   UNIT   55   STATUS:UNKNOWN
 FORMAT:FORMATTED              ACCESS:SEQUENTIAL          

 OPENING seg9.tab
 FILE TYPE:DATA   UNIT   56   STATUS:UNKNOWN
 FORMAT:FORMATTED              ACCESS:SEQUENTIAL          

 OPENING Agwater1.ag
 FILE TYPE:AG   UNIT   57   STATUS:OLD    
 FORMAT:FORMATTED              ACCESS:SEQUENTIAL          

 OPENING Agwater1.hed
 FILE TYPE:DATA   UNIT   62   STATUS:UNKNOWN
 FORMAT:FORMATTED              ACCESS:SEQUENTIAL          

 OPENING Agwater1GW_low.ts5
 FILE TYPE:DATA   UNIT  105   STATUS:UNKNOWN
 FORMAT:FORMATTED              ACCESS:SEQUENTIAL          

 OPENING Agwater1GW_ET_low.ts5
 FILE TYPE:DATA   UNIT  106   STATUS:UNKNOWN
 FORMAT:FORMATTED              ACCESS:SEQUENTIAL          

 OPENING Agwater1GW_ET_low.all
 FILE TYPE:DATA   UNIT  107   STATUS:UNKNOWN
 FORMAT:FORMATTED              ACCESS:SEQUENTIAL          

 OPENING Agwater1GW_low.all
 FILE TYPE:DATA   UNIT  108   STATUS:UNKNOWN
 FORMAT:FORMATTED              ACCESS:SEQUENTIAL          

 OPENING Agwater1.uzfot
 FILE TYPE:DATA(BINARY)   UNIT   61   STATUS:UNKNOWN
 FORMAT:BINARY                 ACCESS:SEQUENTIAL          

 OPENING Agwater1cbc.unf
 FILE TYPE:DATA(BINARY)   UNIT  102   STATUS:UNKNOWN
 FORMAT:BINARY                 ACCESS:SEQUENTIAL          

 OPENING welllist.unf
 FILE TYPE:DATA(BINARY)   UNIT  103   STATUS:UNKNOWN
 FORMAT:BINARY                 ACCESS:SEQUENTIAL          

 OPENING wellirrlist.unf
 FILE TYPE:DATA(BINARY)   UNIT  104   STATUS:UNKNOWN
 FORMAT:BINARY                 ACCESS:SEQUENTIAL          

 OPENING Agwater1.uzf1
 FILE TYPE:DATA   UNIT   65   STATUS:UNKNOWN
 FORMAT:FORMATTED              ACCESS:SEQUENTIAL          

 OPENING Agwater1.uzf2
 FILE TYPE:DATA   UNIT   66   STATUS:UNKNOWN
 FORMAT:FORMATTED              ACCESS:SEQUENTIAL          

 OPENING Agwater1.uzf3
 FILE TYPE:DATA   UNIT   67   STATUS:UNKNOWN
 FORMAT:FORMATTED              ACCESS:SEQUENTIAL          

 OPENING Agwater1.uzf4
 FILE TYPE:DATA   UNIT   68   STATUS:UNKNOWN
 FORMAT:FORMATTED              ACCESS:SEQUENTIAL          

 OPENING Agwater1.flw
 FILE TYPE:DATA   UNIT   81   STATUS:UNKNOWN
 FORMAT:FORMATTED              ACCESS:SEQUENTIAL          

 OPENING Agwater1.sg1
 FILE TYPE:DATA   UNIT   83   STATUS:UNKNOWN
 FORMAT:FORMATTED              ACCESS:SEQUENTIAL          

 OPENING Agwater1.sg2
 FILE TYPE:DATA   UNIT   84   STATUS:UNKNOWN
 FORMAT:FORMATTED              ACCESS:SEQUENTIAL          

 OPENING Agwater1.sg3
 FILE TYPE:DATA   UNIT   85   STATUS:UNKNOWN
 FORMAT:FORMATTED              ACCESS:SEQUENTIAL          

 OPENING Agwater1.sg4
 FILE TYPE:DATA   UNIT   86   STATUS:UNKNOWN
 FORMAT:FORMATTED              ACCESS:SEQUENTIAL          

 OPENING Agwater1.sg5
 FILE TYPE:DATA   UNIT   87   STATUS:UNKNOWN
 FORMAT:FORMATTED              ACCESS:SEQUENTIAL          

 OPENING Agwater1.sg6
 FILE TYPE:DATA   UNIT   88   STATUS:UNKNOWN
 FORMAT:FORMATTED              ACCESS:SEQUENTIAL          

 OPENING Agwater1.sg7
 FILE TYPE:DATA   UNIT   89   STATUS:UNKNOWN
 FORMAT:FORMATTED              ACCESS:SEQUENTIAL          

 OPENING Agwater1.sg8
 FILE TYPE:DATA   UNIT   90   STATUS:UNKNOWN
 FORMAT:FORMATTED              ACCESS:SEQUENTIAL          

 OPENING Agwater1.sg9
 FILE TYPE:DATA   UNIT   91   STATUS:UNKNOWN
 FORMAT:FORMATTED              ACCESS:SEQUENTIAL          

 BAS -- BASIC PACKAGE, VERSION 1.1.4, 4/01/2018 INPUT READ FROM UNIT   75
 
 MODFLOW was compiled using mixed precision
 Precision of REAL variables:           6
 Precision of DOUBLE PRECISION variables:          15

 DISCRETIZATION INPUT DATA READ FROM UNIT    8
 #Test problem 2-- Discretization input
 #Example problem using the UZF1 Package
    1 LAYERS        15 ROWS        10 COLUMNS
   49 STRESS PERIOD(S) IN SIMULATION
 MODEL TIME UNIT IS SECONDS
 MODEL LENGTH UNIT IS FEET
  Confining bed flag for each layer:
   0

                     DELR =   5000.00    

                     DELC =   5000.00    



           TOP ELEVATION OF LAYER 1
 READING ON UNIT    8 WITH FORMAT: (10F7.0)            

            1           2           3           4           5           6           7           8           9          10
 ........................................................................................................................
   1    1105.       1105.       0.000       0.000       0.000       0.000       0.000       0.000       0.000       0.000    
   2    1105.       1095.       1105.       0.000       0.000       1100.       1100.       1110.       0.000       0.000    
   3    0.000       1100.       1085.       1080.       1078.       1076.       1073.       1090.       0.000       0.000    
   4    1110.       1100.       1090.       1085.       1076.       1080.       1080.       1070.       1100.       0.000    
   5    1110.       1100.       1085.       1080.       1078.       1074.       1077.       1066.       1075.       1080.    
   6    1105.       1095.       1080.       1077.       1073.       1069.       1070.       1063.       1085.       1095.    
   7    1105.       1090.       1075.       1072.       1070.       1065.       1065.       1069.       1090.       0.000    
   8    0.000       1080.       1070.       1068.       1063.       1060.       1063.       1067.       1090.       0.000    
   9    0.000       1075.       1065.       1062.       1058.       1052.       1055.       1065.       1090.       0.000    
  10    0.000       1070.       1060.       1055.       1046.       1046.       1044.       1060.       1088.       1100.    
  11    0.000       1055.       1050.       1045.       1041.       1042.       1040.       1050.       1075.       0.000    
  12    1027.       1028.       1028.       1032.       1032.       1033.       1032.       1040.       1060.       0.000    
  13    997.0       1004.       1008.       1014.       1020.       1027.       1032.       1038.       1050.       0.000    
  14    0.000       1030.       1040.       1045.       1050.       1050.       1050.       1050.       1044.       0.000    
  15    0.000       0.000       1080.       1080.       1080.       1080.       0.000       0.000       0.000       0.000    



             MODEL LAYER BOTTOM EL. FOR LAYER   1
 READING ON UNIT    8 WITH FORMAT: (10F7.0)            

            1           2           3           4           5           6           7           8           9          10
 ........................................................................................................................
   1    1000.       1000.       0.000       0.000       0.000       0.000       0.000       0.000       0.000       0.000    
   2    1000.       900.0       900.0       0.000       0.000       950.0       950.0       950.0       0.000       0.000    
   3    0.000       850.0       670.0       680.0       680.0       770.0       770.0       890.0       0.000       0.000    
   4    925.0       850.0       650.0       650.0       650.0       680.0       740.0       850.0       950.0       0.000    
   5    925.0       800.0       650.0       600.0       600.0       600.0       650.0       720.0       850.0       950.0    
   6    925.0       800.0       650.0       600.0       550.0       600.0       650.0       720.0       850.0       970.0    
   7    925.0       800.0       650.0       600.0       550.0       600.0       650.0       720.0       950.0       0.000    
   8    0.000       850.0       700.0       650.0       570.0       600.0       700.0       850.0       950.0       0.000    
   9    0.000       850.0       700.0       650.0       540.0       580.0       700.0       850.0       950.0       0.000    
  10    0.000       850.0       700.0       630.0       530.0       580.0       650.0       800.0       900.0       950.0    
  11    0.000       850.0       700.0       620.0       580.0       620.0       700.0       800.0       900.0       0.000    
  12    900.0       830.0       710.0       640.0       600.0       650.0       700.0       800.0       900.0       0.000    
  13    900.0       810.0       750.0       700.0       650.0       700.0       750.0       800.0       900.0       0.000    
  14    0.000       950.0       850.0       850.0       850.0       850.0       850.0       850.0       850.0       0.000    
  15    0.000       0.000       950.0       950.0       950.0       950.0       0.000       0.000       0.000       0.000    


 STRESS PERIOD     LENGTH       TIME STEPS     MULTIPLIER FOR DELT    SS FLAG
 ----------------------------------------------------------------------------
        1         86400.00          1                    1.000         SS
        2         2630000.         30                    1.000         TR
        3         2630000.         30                    1.000         TR
        4         2630000.         30                    1.000         TR
        5         2630000.         30                    1.000         TR
        6         2630000.         30                    1.000         TR
        7         2630000.         30                    1.000         TR
        8         2630000.         30                    1.000         TR
        9         2630000.         30                    1.000         TR
       10         2630000.         30                    1.000         TR
       11         2630000.         30                    1.000         TR
       12         2630000.         30                    1.000         TR
       13         2630000.         30                    1.000         TR
       14         2630000.         30                    1.000         TR
       15         2630000.         30                    1.000         TR
       16         2630000.         30                    1.000         TR
       17         2630000.         30                    1.000         TR
       18         2630000.         30                    1.000         TR
       19         2630000.         30                    1.000         TR
       20         2630000.         30                    1.000         TR
       21         2630000.         30                    1.000         TR
       22         2630000.         30                    1.000         TR
       23         2630000.         30                    1.000         TR
       24         2630000.         30                    1.000         TR
       25         2630000.         30                    1.000         TR
       26         2630000.         30                    1.000         TR
       27         2630000.         30                    1.000         TR
       28         2630000.         30                    1.000         TR
       29         2630000.         30                    1.000         TR
       30         2630000.         30                    1.000         TR
       31         2630000.         30                    1.000         TR
       32         2630000.         30                    1.000         TR
       33         2630000.         30                    1.000         TR
       34         2630000.         30                    1.000         TR
       35         2630000.         30                    1.000         TR
       36         2630000.         30                    1.000         TR
       37         2630000.         30                    1.000         TR
       38         2630000.         30                    1.000         TR
       39         2630000.         30                    1.000         TR
       40         2630000.         30                    1.000         TR
       41         2630000.         30                    1.000         TR
       42         2630000.         30                    1.000         TR
       43         2630000.         30                    1.000         TR
       44         2630000.         30                    1.000         TR
       45         2630000.         30                    1.000         TR
       46         2630000.         30                    1.000         TR
       47         2630000.         30                    1.000         TR
       48         2630000.         30                    1.000         TR
       49         2630000.         30                    1.000         TR

 COMBINED STEADY-STATE AND TRANSIENT SIMULATION



 
 #Test Simulation 2-- Example problem using the UZF1 Package                     
 #Modified from example Problem 1 of SFR1 documentation report                   
 THE FREE FORMAT OPTION HAS BEEN SELECTED



                     BOUNDARY ARRAY FOR LAYER   1
 READING ON UNIT   75 WITH FORMAT: (20I4)              

                1           2           3           4           5           6           7           8           9          10
 ............................................................................................................................
   1            1           1           0           0           0           0           0           0           0           0
   2            1           1           1           0           0           1           1           1           0           0
   3            0           1           1           1           1           1           1           1           0           0
   4            1           1           1           1           1           1           1           1           1           0
   5            1           1           1           1           1           1           1           1           1           1
   6            1           1           1           1           1           1           1           1           1           1
   7            1           1           1           1           1           1           1           1           1           0
   8            0           1           1           1           1           1           1           1           1           0
   9            0           1           1           1           1           1           1           1           1           0
  10            0           1           1           1           1           1           1           1           1           1
  11            0           1           1           1           1           1           1           1           1           0
  12            1           1           1           1           1           1           1           1           1           0
  13            1           1           1           1           1           1           1           1           1           0
  14            0           1           1           1           1           1           1           1           1           0
  15            0           0           1           1           1           1           0           0           0           0

 AQUIFER HEAD WILL BE SET TO   6999.0     AT ALL NO-FLOW NODES (IBOUND=0).



                       INITIAL HEAD FOR LAYER   1
 READING ON UNIT   75 WITH FORMAT: (10F8.0)            

            1           2           3           4           5           6           7           8           9          10
 ........................................................................................................................
   1    1093.       1089.       6999.       6999.       6999.       6999.       6999.       6999.       6999.       6999.    
   2    1090.       1087.       1081.       6999.       6999.       1072.       1071.       1071.       6999.       6999.    
   3    6999.       1079.       1078.       1074.       1072.       1071.       1069.       1068.       6999.       6999.    
   4    1069.       1071.       1070.       1067.       1065.       1064.       1064.       1066.       1066.       6999.    
   5    1065.       1064.       1063.       1062.       1061.       1061.       1060.       1062.       1066.       1068.    
   6    1060.       1058.       1057.       1056.       1056.       1057.       1057.       1059.       1062.       1066.    
   7    1056.       1053.       1052.       1051.       1051.       1052.       1053.       1055.       1056.       6999.    
   8    6999.       1046.       1046.       1046.       1046.       1046.       1048.       1050.       1050.       6999.    
   9    6999.       1039.       1039.       1039.       1040.       1041.       1042.       1043.       1044.       6999.    
  10    6999.       1031.       1032.       1033.       1034.       1035.       1037.       1038.       1039.       1042.    
  11    6999.       1021.       1023.       1027.       1029.       1030.       1032.       1034.       1036.       6999.    
  12    1001.       1009.       1015.       1020.       1023.       1026.       1029.       1030.       1034.       6999.    
  13    994.5      1000.0       1007.       1013.       1019.       1024.       1029.       1034.       1036.       6999.    
  14    6999.       1004.       1009.       1014.       1019.       1024.       1029.       1035.       1039.       6999.    
  15    6999.       6999.       1012.       1015.       1019.       1022.       6999.       6999.       6999.       6999.    

 OUTPUT CONTROL IS SPECIFIED ONLY AT TIME STEPS FOR WHICH OUTPUT IS DESIRED
 HEADS WILL BE SAVED WITH FORMAT: (10F10.3)           
 SAVED HEADS WILL BE LABELED
 COMPACT CELL-BY-CELL BUDGET FILES WILL BE WRITTEN
 HEAD PRINT FORMAT CODE IS   4    DRAWDOWN PRINT FORMAT CODE IS   0
 HEADS WILL BE SAVED ON UNIT   62    DRAWDOWNS WILL BE SAVED ON UNIT    0
 # NWT Input File
 # Test Problem 3 for MODFLOW-NWT
 #HEADTOL  FLUXTOL MAXITEROUT THICKFACT LINMETH IPRNWT IBOTAV OPTIONS DBDREDUCE DBDINCREASE DBDGAMMA MOMFACT BACKFLAG MAXBACKITER BACKTOL BACKREDUCE

 NWT1 -- Newton Solver, VERSION 1.1.4, 4/01/2018
         INPUT READ FROM UNIT 13

 SPECIFIED OPTION:
 SOLVER INPUT VALUES ARE SPECIFIED BY USER
 ***XMD linear solver will be used***
 
   CONVERGENCE CRITERION OF   0.100000E-03 FOR HEAD SOLUTION
   AND A TOLERANCE OF   0.100000E+03 FOR FLOW SOLUTION AND 
   A MAXIMUM OF   500 OUTER ITERATIONS. 


   D-B-D REDUCTION FACTOR OF    0.970000E+00 AND 
   A D-B-D INCREASE FACTOR OF    0.100000E-04 AND 
   A D-B-D RELAXATION OF    0.000000E+00 AND 
   A MOMENTUM FACTOR OF    0.100000E+00 .


 ***BACKTRACKING IS INACTIVE***
 XMD -- LINEAR SOLUTION BY XMD PACKAGE VERSION 1.30
     BY MOTOMU IBARAKI, OHIO STATE UNIVERSITY, COLOMBUS, OH
                 INPUT READ FROM UNIT 13
 ACCELERATION METHOD                    (IACL) =         1
 NODE ORDERING FLAG                   (NORDER) =         0
 LEVEL OF FILL                         (LEVEL) =         7
 MAXIMUM NUMBER OF ORTHOGONALIZATIONS  (NORTH) =         7
 INDEX FOR USING REDUCED SYSTEM      (IREDSYS) =         1
 RESID. REDUCTION CONVERGE CRITERION  (RRCTOL) =  0.000000E+00
 INDEX FOR USING DROP TOLERANCE     (IDROPTOL) =         1
 DROP TOLERANCE VALUE                  (EPSRN) =  0.500000E-02
 CONVERGENCE CRITERIA OF           (HCLOSEXMD) =  0.100000E-03
 MAX. NUMBER OF LINEAR ITERATIONS  (MXITERXMD) =        50


 UPW1 -- UPSTREAM WEIGHTING FLOW PACKAGE, VERSION 1.1.4, 4/01/2018
         INPUT READ FROM UNIT  7

 #Layer-Property Flow Package input for test simulation 2
 CELL-BY-CELL FLOWS WILL BE SAVED ON UNIT  102
 No named parameters

   LAYER FLAGS:
 LAYER       LAYTYP          LAYAVG    CHANI           LAYVKA           LAYWET
 ---------------------------------------------------------------------------
    1             1             0     1.000E+00             0             0

   INTERPRETATION OF LAYER FLAGS:
                        INTERBLOCK     HORIZONTAL    DATA IN
         LAYER TYPE   TRANSMISSIVITY   ANISOTROPY   ARRAY VKA   WETTABILITY
 LAYER   (LAYTYP)        (LAYAVG)      (CHANI)     (LAYVKA)       (LAYWET)
 ---------------------------------------------------------------------------
    1   CONVERTIBLE      HARMONIC     1.000E+00    VERTICAL K  NON-WETTABLE



              HYD. COND. ALONG ROWS FOR LAYER   1
 READING ON UNIT    7 WITH FORMAT: (10F5.0)            

            1           2           3           4           5           6           7           8           9          10
 ........................................................................................................................
   1   2.0000E-03  2.0000E-03   0.000       0.000       0.000       0.000       0.000       0.000       0.000       0.000    
   2   4.0000E-04  2.0000E-03  2.0000E-03   0.000       0.000      4.0000E-04  4.0000E-04  4.0000E-04   0.000       0.000    
   3    0.000      4.0000E-04  2.0000E-03  2.0000E-03  4.0000E-04  4.0000E-04  4.0000E-04  4.0000E-04   0.000       0.000    
   4   4.0000E-04  4.0000E-04  4.0000E-04  2.0000E-03  2.0000E-03  2.0000E-03  4.0000E-04  4.0000E-04  4.0000E-04   0.000    
   5   4.0000E-04  4.0000E-04  4.0000E-04  2.0000E-03  2.0000E-03  2.0000E-03  2.0000E-03  2.0000E-03  2.0000E-03  2.0000E-03
   6   4.0000E-04  4.0000E-04  4.0000E-04  2.0000E-03  2.0000E-03  2.0000E-03  2.0000E-03  2.0000E-03  4.0000E-04  4.0000E-04
   7   4.0000E-04  4.0000E-04  4.0000E-04  2.0000E-03  2.0000E-03  2.0000E-03  2.0000E-03  2.0000E-03  4.0000E-04   0.000    
   8    0.000      4.0000E-04  4.0000E-04  2.0000E-03  2.0000E-03  2.0000E-03  2.0000E-03  4.0000E-04  4.0000E-04   0.000    
   9    0.000      4.0000E-04  4.0000E-04  2.0000E-03  2.0000E-03  2.0000E-03  2.0000E-03  4.0000E-04  4.0000E-04   0.000    
  10    0.000      4.0000E-04  4.0000E-04  2.0000E-03  2.0000E-03  2.0000E-03  2.0000E-03  4.0000E-04  4.0000E-04  4.0000E-04
  11    0.000      4.0000E-04  4.0000E-04  2.0000E-03  2.0000E-03  2.0000E-03  2.0000E-03  4.0000E-04  4.0000E-04   0.000    
  12   4.0000E-04  4.0000E-04  2.0000E-03  2.0000E-03  2.0000E-03  2.0000E-03  2.0000E-03  4.0000E-04  4.0000E-04   0.000    
  13   2.0000E-03  2.0000E-03  2.0000E-03  2.0000E-03  2.0000E-03  2.0000E-03  2.0000E-03  2.0000E-03  2.0000E-03   0.000    
  14    0.000      4.0000E-04  4.0000E-04  4.0000E-04  4.0000E-04  4.0000E-04  4.0000E-04  4.0000E-04  2.0000E-03   0.000    
  15    0.000       0.000      4.0000E-04  4.0000E-04  4.0000E-04  4.0000E-04   0.000       0.000       0.000       0.000    

      VERTICAL HYD. COND. =  1.000000E-06 FOR LAYER   1

         SPECIFIC STORAGE =  1.000000E-06 FOR LAYER   1



                     SPECIFIC YIELD FOR LAYER   1
 READING ON UNIT    7 WITH FORMAT: (10F5.0)            

            1           2           3           4           5           6           7           8           9          10
 ........................................................................................................................
   1   0.2000      0.2000       0.000       0.000       0.000       0.000       0.000       0.000       0.000       0.000    
   2   0.1000      0.2000      0.2000       0.000       0.000      0.1000      0.1000      0.1000       0.000       0.000    
   3    0.000      0.1000      0.2000      0.2000      0.1000      0.1000      0.1000      0.1000       0.000       0.000    
   4   0.1000      0.1000      0.1000      0.2000      0.2000      0.2000      0.1000      0.1000      0.1000       0.000    
   5   0.1000      0.1000      0.1000      0.2000      0.2000      0.2000      0.2000      0.2000      0.2000      0.2000    
   6   0.1000      0.1000      0.1000      0.2000      0.2000      0.2000      0.2000      0.2000      0.1000      0.1000    
   7   0.1000      0.1000      0.1000      0.2000      0.2000      0.2000      0.2000      0.2000      0.1000       0.000    
   8    0.000      0.1000      0.1000      0.2000      0.2000      0.2000      0.2000      0.1000      0.1000       0.000    
   9    0.000      0.1000      0.1000      0.2000      0.2000      0.2000      0.2000      0.1000      0.1000       0.000    
  10    0.000      0.1000      0.1000      0.2000      0.2000      0.2000      0.2000      0.1000      0.1000      0.1000    
  11    0.000      0.1000      0.1000      0.2000      0.2000      0.2000      0.2000      0.1000      0.1000       0.000    
  12   0.1000      0.1000      0.2000      0.2000      0.2000      0.2000      0.2000      0.1000      0.1000       0.000    
  13   0.2000      0.2000      0.2000      0.2000      0.2000      0.2000      0.2000      0.2000      0.2000       0.000    
  14    0.000      0.1000      0.1000      0.1000      0.1000      0.1000      0.1000      0.1000      0.2000       0.000    
  15    0.000       0.000      0.1000      0.1000      0.1000      0.1000       0.000       0.000       0.000       0.000    

 GHB -- GENERAL-HEAD BOUNDARY PACKAGE, VERSION 7, 5/2/2005
         INPUT READ FROM UNIT   17
 No named parameters
 MAXIMUM OF      2 ACTIVE GHB CELLS AT ONE TIME
 CELL-BY-CELL FLOWS WILL BE PRINTED WHEN ICBCFL NOT 0


     0 GHB parameters

 SFR7 -- STREAMFLOW ROUTING PACKAGE, VERSION 1.0.5, 2012-04-05
         INPUT READ FROM UNIT  15
 #SFR2 Package input for Testing supplimental pumping and irrigation
 No named parameters

 PROCESSING SFR2 OPTIONS
 
          1 Specified inflow files will be read with a maximum of        759 row entries per file
 
Stream loss will be calculated as a factor of the streambed hydraulic conductivity. Multiplication factor is equal to     0.1000000015E+00

 END PROCESSING SFR2 OPTIONS
 


 NUMBER OF STREAM REACHES IS   36

 NUMBER OF STREAM SEGMENTS IS    8

 NUMBER OF STREAM PARAMETERS IS    0

 NUMBER OF STREAM SEGMENTS DEFINED USING PARAMETERS IS              0

 MAXIMUM ERROR FOR STREAM LEAKAGE RATES IS  1.00E-06

 CONSTANT FOR MANNINGS EQUATION IS  1.4860E+00



 STREAM OUTPUT WILL BE WRITTEN TO FILE ON UNIT   81


   STREAM NETWORK DESCRIPTION: 

   LAYER    ROW    COL   SEGMENT   REACH     LENGTH
                          NUMBER   NUMBER    IN CELL        
   --------------------------------------------------
      1      1      1       1        1    4.5000E+03
      1      2      2       1        2    7.0000E+03
      1      3      3       1        3    6.0000E+03
      1      3      4       1        4    5.5500E+03
      1      4      5       2        1    6.5000E+03
      1      5      6       2        2    5.0000E+03
      1      6      6       2        3    5.0000E+03
      1      7      6       2        4    5.0000E+03
      1      8      6       2        5    5.0000E+03
      1      3      5       3        1    5.0000E+03
      1      3      6       3        2    5.0000E+03
      1      3      7       3        3    4.5000E+03
      1      4      8       3        4    6.0000E+03
      1      5      8       3        5    5.0000E+03
      1      6      8       3        6    2.0000E+03
      1      5     10       4        1    2.5000E+03
      1      5      9       4        2    5.0000E+03
      1      6      8       4        3    3.5000E+03
      1      6      8       5        1    4.0000E+03
      1      7      7       5        2    5.0000E+03
      1      8      7       5        3    3.5000E+03
      1      8      6       5        4    2.5000E+03
      1      9      6       6        1    5.0000E+03
      1     10      7       6        2    5.0000E+03
      1     11      7       6        3    5.0000E+03
      1     12      7       6        4    5.0000E+03
      1     13      7       6        5    2.0000E+03
      1     14      9       7        1    5.0000E+03
      1     13      8       7        2    5.5000E+03
      1     13      7       7        3    5.0000E+03
      1     13      6       8        1    5.0000E+03
      1     13      5       8        2    5.0000E+03
      1     13      4       8        3    5.0000E+03
      1     13      3       8        4    5.0000E+03
      1     13      2       8        5    5.0000E+03
      1     13      1       8        6    3.0000E+03




 UZF1 -- UNSATURATED FLOW PACKAGE, VERSION 1.4, 02/06/2012
         INPUT READ FROM UNIT 19
 #UZF Package input for test simulation 2
 No named parameters

 PROCESSING UZF OPTIONS
 
 
 INITIAL WATER CONTENT (THTI) WILL BE 
READ FOR THE FIRST SS OR TR STRESS PERIOD
 
 
 RESIDUAL WATER CONTENT (THTR) WILL BE 
READ AND USED FOR THE FIRST TRANSIENT STRESS 
PERIOD
 
 
AIR ENTRY PRESSURE AND ROOT PRESSURE WILL BE 
SPECIFIED BY USER AND UZ ET WILL BE SIMULATED 
AS PRESSURE-HEAD DEPENDENT
 
 
INFILTRATION WILL BE REJECTED USING 
LAND SURFACE K
 
 
HYDRAULIC CONDUCTIVITY OF LAND SURFACE 
WILL BE READ
 

 END PROCESSING UZF OPTIONS



            AREAL EXTENT OF UZ FLOW
 READING ON UNIT   19 WITH FORMAT: (20I4)              

                1           2           3           4           5           6           7           8           9          10
 ............................................................................................................................
   1            1           1           0           0           0           0           0           0           0           0
   2            1           1           1           0           0           1           1           1           0           0
   3            0           1           1           1           1           1           1           1           0           0
   4            1           1           1           1           1           1           1           1           1           0
   5            1           1           1           1           1           1           1           1           1           1
   6            1           1           1           1           1           1           1           1           1           1
   7            1           1           1           1           1           1           1           1           1           0
   8            0           1           1           1           1           1           1           1           1           0
   9            0           1           1           1           1           1           1           1           1           0
  10            0           1           1           1           1           1           1           1           1           1
  11            0           1           1           1           1           1           1           1           1           0
  12            1           1           1           1           1           1           1           1           1           0
  13            1           1           1           1           1           1           1           1           1           0
  14            0           1           1           1           1           1           1           1           1           0
  15            0           0           1           1           1           1           0           0           0           0
 OPTION 1 -- RECHARGE IN UZF TO TOP LAYER ONLY 



            ROUTING OVERLAND RUNOFF
 READING ON UNIT   19 WITH FORMAT: (20I4)              

                1           2           3           4           5           6           7           8           9          10
 ............................................................................................................................
   1            1           1           0           0           0           0           0           0           0           0
   2            1           1           1           0           0           3           3           3           0           0
   3            0           1           1           1           3           3           3           3           0           0
   4            8           8           2           2           2           2           2           3           3           0
   5            8           8           8           8           2           2           2           3           4           4
   6            8           8           8           8           8           2           2           4           4           4
   7            8           8           8           8           8           2           5           5           5           0
   8            0           8           8           8           8           2           5           5           5           0
   9            0           8           8           8           8           6           6           6           6           0
  10            0           8           8           8           8           6           6           6           6           6
  11            0           8           8           8           8           8           6           6           7           0
  12            8           8           8           8           8           8           6           7           7           0
  13            8           8           8           8           8           8           7           7           7           0
  14            0           8           8           8           8           8           7           7           7           0
  15            0           0           8           8           8           8           0           0           0           0



               SATURATED VERTICAL K
 READING ON UNIT   19 WITH FORMAT: (10F4.0)            

            1           2           3           4           5           6           7           8           9          10
 ........................................................................................................................
   1   4.6000E-05  4.6000E-05   0.000       0.000       0.000       0.000       0.000       0.000       0.000       0.000    
   2   4.6000E-05  4.6000E-05  4.6000E-05   0.000       0.000      4.6000E-05  4.6000E-05  4.6000E-05   0.000       0.000    
   3    0.000      4.6000E-05  4.6000E-05  4.6000E-05  4.6000E-05  4.6000E-05  4.6000E-05  4.6000E-05   0.000       0.000    
   4   4.6000E-05  4.6000E-05  4.6000E-05  4.6000E-05  4.6000E-05  4.6000E-05  4.6000E-05  4.6000E-05  4.6000E-05   0.000    
   5   4.6000E-05  4.6000E-05  4.6000E-05  4.6000E-05  4.6000E-05  4.6000E-05  4.6000E-05  4.6000E-05  4.6000E-05  4.6000E-05
   6   4.6000E-05  4.6000E-05  4.6000E-05  4.6000E-05  4.6000E-05  4.6000E-05  4.6000E-05  4.6000E-05  4.6000E-05  4.6000E-05
   7   4.6000E-05  4.6000E-05  4.6000E-05  4.6000E-05  4.6000E-05  4.6000E-05  4.6000E-05  4.6000E-05  4.6000E-05   0.000    
   8    0.000      4.6000E-05  4.6000E-05  4.6000E-05  4.6000E-05  4.6000E-05  4.6000E-05  4.6000E-05  4.6000E-05   0.000    
   9    0.000      4.6000E-05  4.6000E-05  4.6000E-05  4.6000E-05  4.6000E-05  4.6000E-05  4.6000E-05  4.6000E-05   0.000    
  10    0.000      4.6000E-05  4.6000E-05  4.6000E-05  4.6000E-05  4.6000E-05  4.6000E-05  4.6000E-05  4.6000E-05  4.6000E-05
  11    0.000      4.6000E-05  4.6000E-05  4.6000E-05  4.6000E-05  4.6000E-05  4.6000E-05  4.6000E-05  4.6000E-05   0.000    
  12   4.6000E-05  4.6000E-05  4.6000E-05  4.6000E-05  4.6000E-05  4.6000E-05  4.6000E-05  4.6000E-05  4.6000E-05   0.000    
  13   4.6000E-05  4.6000E-05  4.6000E-05  4.6000E-05  4.6000E-05  4.6000E-05  4.6000E-05  4.6000E-05  4.6000E-05   0.000    
  14    0.000      4.6000E-05  4.6000E-05  4.6000E-05  4.6000E-05  4.6000E-05  4.6000E-05  4.6000E-05  4.6000E-05   0.000    
  15    0.000       0.000      4.6000E-05  4.6000E-05  4.6000E-05  4.6000E-05   0.000       0.000       0.000       0.000    



            LAND SURFACE VERTICAL K
 READING ON UNIT   19 WITH FORMAT: (10F4.0)            

            1           2           3           4           5           6           7           8           9          10
 ........................................................................................................................
   1   1.0000E-05  1.0000E-05   0.000       0.000       0.000       0.000       0.000       0.000       0.000       0.000    
   2   1.0000E-05  1.0000E-05  1.0000E-05   0.000       0.000      1.0000E-05  1.0000E-05  1.0000E-05   0.000       0.000    
   3    0.000      1.0000E-05  1.0000E-05  1.0000E-05  1.0000E-05  1.0000E-05  1.0000E-05  1.0000E-05   0.000       0.000    
   4   1.0000E-05  1.0000E-05  1.0000E-05  1.0000E-05  1.0000E-05  1.0000E-05  1.0000E-05  1.0000E-05  1.0000E-05   0.000    
   5   1.0000E-05  1.0000E-05  1.0000E-05  1.0000E-05  1.0000E-05  1.0000E-05  1.0000E-05  1.0000E-05  1.0000E-05  1.0000E-05
   6   1.0000E-05  1.0000E-05  1.0000E-05  1.0000E-05  1.0000E-05  1.0000E-05  1.0000E-05  1.0000E-05  1.0000E-05  1.0000E-05
   7   1.0000E-05  1.0000E-05  1.0000E-05  1.0000E-05  1.0000E-05  1.0000E-05  1.0000E-05  1.0000E-05  1.0000E-05   0.000    
   8    0.000      1.0000E-05  1.0000E-05  1.0000E-05  1.0000E-05  1.0000E-05  1.0000E-05  1.0000E-05  1.0000E-05   0.000    
   9    0.000      1.0000E-05  1.0000E-05  1.0000E-05  1.0000E-05  1.0000E-05  1.0000E-05  1.0000E-05  1.0000E-05   0.000    
  10    0.000      1.0000E-05  1.0000E-05  1.0000E-05  1.0000E-05  1.0000E-05  1.0000E-05  1.0000E-05  1.0000E-05  1.0000E-05
  11    0.000      1.0000E-05  1.0000E-05  1.0000E-05  1.0000E-05  1.0000E-05  1.0000E-05  1.0000E-05  1.0000E-05   0.000    
  12   1.0000E-05  1.0000E-05  1.0000E-05  1.0000E-05  1.0000E-05  1.0000E-05  1.0000E-05  1.0000E-05  1.0000E-05   0.000    
  13   1.0000E-05  1.0000E-05  1.0000E-05  1.0000E-05  1.0000E-05  1.0000E-05  1.0000E-05  1.0000E-05  1.0000E-05   0.000    
  14    0.000      1.0000E-05  1.0000E-05  1.0000E-05  1.0000E-05  1.0000E-05  1.0000E-05  1.0000E-05  1.0000E-05   0.000    
  15    0.000       0.000      1.0000E-05  1.0000E-05  1.0000E-05  1.0000E-05   0.000       0.000       0.000       0.000    

     BROOKS-COREY EPSILON =   7.50000    

  SATURATED WATER CONTENT =  0.380000    

   RESIDUAL WATER CONTENT =  0.200000    

    INITIAL WATER CONTENT =  0.200000    

UNSATURATED FLOW RESULTS WILL BE PRINTED TO SEPARATE FILES FOR SELECTED MODEL CELLS, AND TIME STEPS AS DEFINED BY OUTPUT CONTROL PACKAGE 

SELECTED MODEL CELLS ARE: 
 ROW NUMBER  COLUMN NUMBER  FORTRAN UNIT NUMBER  OUTPUT OPTION


       6             4                 65                 1
       6             5                 66                 2
       8             4                 67                 3
       0             0                 68                 4



   8 GAGING STATIONS WERE SPECIFIED.
     (Lakes are identified by a negative value of the Lake Number)
     RECORDS WILL BE WRITTEN TO SEPARATE OUTPUT FILES REPRESENTED BY FOLLOWING UNIT NUMBERS:

 Stream Gages:
  GAGE #   SEGMENT   REACH   UNIT   OUTTYPE
       1       1       4      83       1
       2       2       3      84       1
       3       3       5      85       1
       4       4       3      86       1
       5       5       4      87       4
       6       6       5      88       4
       7       7       3      89       4
       8       8       6      90       4





 AG -- AG PACKAGE FOR NWT VERSION 1.1.3,  8/01/2017 INPUT READ FROM UNIT   57
 # AG options

 PROCESSING AG OPTIONS
 
 AGRICULTURAL DEMANDS WILL BE CALCULATED USING ET DEFICIT
 
 
 OPTION TO APPLY PUMPED WATER AS IRRIGATION IS ACTIVE. PUMPED IRRIGATION WATER WILL BE APPLIED TO          6 CELLS/RHUS.
 
 
 THE MAXIMUM NUMBER OF WELLS FOR SUPPLEMENTING DIVERSIONS OR APPLYING IRRIGATION IS          6 WELLS.
 
 
  UNFORMATTED CELL BY CELL RATES FOR SUP AND IRR WELLS WILL BE SAVED TO FILE UNIT NUMBER         -2
 
 
  UNFORMATTED CELL BY CELL RATES FOR SUP AND IRR WELLS WILL BE SAVED TO FILE UNIT NUMBER         -2
 
 
  GROUND WATER IRRIGATION, POTENTIAL AND ACTUAL ET WILL BE SAVED TO TIMES SERIES OUTPUT FILES.
 
 
  GROUND WATER IRRIGATION, POTENTIAL AND ACTUAL ET WILL BE SAVED TO TIMES SERIES OUTPUT FILES.
 

 END PROCESSING AG OPTIONS
 # AG time series

 PROCESSING TIME SERIES

 FINISHED READING TIME SERIES
 A total number of          0 AG output time series files were activated for SURFACE WATER 
 A total number of          2 AG output time series files were activated for GROUNDWATER 
 A total number of          0 AG output time series files were activated for SURFACE WATER ET
 A total number of          2 AG output time series files were activated for GROUNDWATER ET
1
                            STRESS PERIOD NO.    1, LENGTH =   86400.00    
                            -----------------------------------------------

                              NUMBER OF TIME STEPS =     1

                               MULTIPLIER FOR DELT =     1.000

                            INITIAL TIME STEP SIZE =   86400.00    

 BOUND. NO. LAYER   ROW   COL     STAGE      CONDUCTANCE         
 ----------------------------------------------------------------
      1      1     13      1       988.0          0.3800E-01
      2      1     14      9       1045.          0.3800E-01

      2 GHB CELLS



 CLASSIFICATION & COUNT OF STREAM SEGMENTS BASED ON SOURCE OF INFLOW:

                HEADWATER     DIVERSION     RECEIVES TRIBUTARY FLOW
                ---------     ---------     -----------------------
                     3              1               4



                    INPUT DATA FOR EACH STREAM SEGMENT
 ---------------------------------------------------------------------------------------------

 SEGMENT    SEG.     INFLOW   OVERLAND   STREAM    STREAM   ICALC  OUTFLOW  DIVERSION PRIORITY
    NO.    LENGTH     RATE     RUNOFF      ET       PPT.    METH.  TO SEG.  FROM SEG.    NO.

      1  2.305E+04 2.500E+01 0.000E+00 0.000E+00 0.000E+00    4        2        0        0
      2  2.650E+04 0.000E+00 0.000E+00 0.000E+00 0.000E+00    1        6        0        0
      3  2.750E+04 2.000E+00 0.000E+00 0.000E+00 0.000E+00    0        5        1        0
      4  1.100E+04 1.000E+01 0.000E+00 0.000E+00 0.000E+00    1        5        0        0
      5  1.500E+04 0.000E+00 0.000E+00 0.000E+00 0.000E+00    3        6        0        0
      6  2.200E+04 0.000E+00 0.000E+00 0.000E+00 0.000E+00    1        8        0        0
      7  1.550E+04 1.500E+02 0.000E+00 0.000E+00 0.000E+00    2        8        0        0
      8  2.800E+04 0.000E+00 0.000E+00 0.000E+00 0.000E+00    2        0        0        0


         STREAMBED PROPERTIES AND STREAM DIMENSIONS

 SEGMENT     BED HYD. COND.      BED THICKNESS     ELEV.-TOP OF BED     WIDTH OF STREAM     DEPTH OF STREAM    STREAM ROUGHNESS
    No.     UPPER     LOWER     UPPER     LOWER     UPPER     LOWER     UPPER     LOWER     UPPER     LOWER   CHANNEL      BANK

     1  3.000E-05 3.000E-05 3.000E+00 3.000E+00 1.095E+03 1.075E+03
     2  3.000E-05 3.000E-05 3.000E+00 3.000E+00 1.075E+03 1.050E+03 1.200E+01 1.200E+01                     3.000E-02
     3  3.000E-05 3.000E-05 2.000E+00 2.000E+00 1.075E+03 1.060E+03 1.000E+01 6.000E+00 2.000E+00 1.000E+00
     4  3.000E-05 3.000E-05 3.000E+00 3.000E+00 1.080E+03 1.060E+03 1.000E+01 1.000E+01                     3.000E-02
     5  3.000E-05 3.000E-05 3.000E+00 3.000E+00 1.060E+03 1.045E+03
     6  3.000E-05 3.000E-05 3.000E+00 3.000E+00 1.045E+03 1.025E+03 1.200E+01 1.200E+01                     3.000E-02
     7  6.000E-05 6.000E-05 3.000E+00 3.000E+00 1.040E+03 1.025E+03                                         2.500E-02 4.500E-02
     8  6.000E-05 6.000E-05 3.000E+00 3.000E+00 1.025E+03 9.900E+02                                         2.500E-02 4.500E-02

  EIGHT POINT CROSS-SECTION DATA FOR SEGMENTS WITH ICALC = 2
    X VALUES X VALUES START FROM LEFT SIDE LOOKING DOWNSTREAM

     SEGMENT NO.        X1        X2        X3        X4        X5        X6        X7        X8
            7      0.000E+00 1.000E+01 8.000E+01 1.000E+02 1.500E+02 1.700E+02 2.400E+02 2.500E+02
            8      0.000E+00 1.000E+01 8.000E+01 1.000E+02 1.500E+02 1.700E+02 2.400E+02 2.500E+02

    Z VALUES ARE RELATIVE TO STREAMBED ELEVATION

     SEGMENT NO.          Z1        Z2        Z3        Z4        Z5        Z6        Z7        Z8
            7      2.000E+01 1.300E+01 1.000E+01 2.000E+00 0.000E+00 1.000E+01 1.300E+01 2.000E+01
            8      2.500E+01 1.700E+01 1.300E+01 4.000E+00 0.000E+00 1.000E+01 1.600E+01 2.000E+01

 STREAMFLOW RELATION WITH DEPTH IS BASED ON EQUATION Q = CDPTH*(DEPTH)**FDPTH
 STREAMFLOW RELATION WITH WIDTH IS BASED ON EQUATION Q = AWDTH*(WIDTH)**BWDTH

 SEGMENT NO.      CDPTH     FDPTH    AWDTH     BWDTH

          5 3.000E-01 3.500E-01 3.800E+00 6.000E-01

 STREAMFLOW RELATION WITH DEPTH AND WIDTH IS BASED ON TABULATED VALUES

  SEGMENT NO.   STREAMFLOW       DEPTH       WIDTH

          1     5.0000E-01   2.5000E-01   3.0000E+00
          1     1.0000E+00   4.0000E-01   3.5000E+00
          1     2.0000E+00   5.5000E-01   4.2000E+00
          1     4.0000E+00   7.0000E-01   5.3000E+00
          1     7.0000E+00   8.0000E-01   7.0000E+00
          1     1.0000E+01   9.0000E-01   8.5000E+00
          1     2.0000E+01   1.1000E+00   1.2000E+01
          1     3.0000E+01   1.2500E+00   1.4000E+01
          1     5.0000E+01   1.4000E+00   1.7000E+01
          1     7.5000E+01   1.7000E+00   2.0000E+01
          1     1.0000E+02   1.8000E+00   2.2000E+01



TABULAR INFLOWS WERE READ FOR SEGMENT      1
FROM FILE UNIT NUMBER     55

          TIMES                    INFLOWS
         0.0000000000E+00     0.5000000000E+01
         0.8640000000E+05     0.2200000000E+02
         0.2760000000E+07     0.4200000000E+02
         0.5270000000E+07     0.7700000000E+02
         0.7950000000E+07     0.2800000000E+02
         0.1050000000E+08     0.9900000000E+02
         0.1320000000E+08     0.8300000000E+02
         0.1580000000E+08     0.7500000000E+02
         0.1850000000E+08     0.6100000000E+02
         0.2120000000E+08     0.4700000000E+02
         0.2380000000E+08     0.3500000000E+02
         0.2640000000E+08     0.2600000000E+02
         0.2900000000E+08     0.2300000000E+02
         0.3170000000E+08     0.1900000000E+02
         0.3440000000E+08     0.2100000000E+02
         0.3680000000E+08     0.9800000000E+02
         0.3950000000E+08     0.7500000000E+02
         0.4210000000E+08     0.6300000000E+02
         0.4480000000E+08     0.5800000000E+02
         0.4730000000E+08     0.5400000000E+02
         0.5000000000E+08     0.3700000000E+02
         0.5270000000E+08     0.2500000000E+02
         0.5530000000E+08     0.2200000000E+02
         0.5800000000E+08     0.2100000000E+02
         0.6060000000E+08     0.2000000000E+02
         0.6320000000E+08     0.1900000000E+02



            AREAL INFILTRATION RATE
 READING ON UNIT   19 WITH FORMAT: (10F4.0)            

            1           2           3           4           5           6           7           8           9          10
 ........................................................................................................................
   1   1.0000E-10  2.0000E-10   0.000       0.000       0.000       0.000       0.000       0.000       0.000       0.000    
   2   2.0000E-10  1.0000E-10  2.0000E-10   0.000       0.000      8.0000E-10  8.0000E-10  5.0000E-10   0.000       0.000    
   3    0.000      5.0000E-10  1.0000E-10  1.0000E-10  8.0000E-10  8.0000E-10  5.0000E-10  5.0000E-10   0.000       0.000    
   4   8.0000E-10  5.0000E-10  1.0000E-10  1.0000E-10  1.0000E-10  1.0000E-10  1.0000E-10  1.0000E-10  2.0000E-10   0.000    
   5   8.0000E-10  5.0000E-10  1.0000E-10  1.0000E-10  1.0000E-10  1.0000E-10  1.0000E-10  1.0000E-10  1.0000E-10  1.0000E-10
   6   8.0000E-10  5.0000E-10  5.0000E-10  2.0000E-10  2.0000E-10  1.0000E-10  1.0000E-10  1.0000E-10  1.0000E-10  5.0000E-10
   7   8.0000E-10  5.0000E-10  5.0000E-10  2.0000E-10  2.0000E-10  1.0000E-10  1.0000E-10  2.0000E-10  2.0000E-10   0.000    
   8    0.000      5.0000E-10  5.0000E-10  2.0000E-10  2.0000E-10  1.0000E-10  1.0000E-10  2.0000E-10  5.0000E-10   0.000    
   9    0.000      5.0000E-10  5.0000E-10  2.0000E-10  2.0000E-10  1.0000E-10  1.0000E-10  2.0000E-10  5.0000E-10   0.000    
  10    0.000      5.0000E-10  5.0000E-10  2.0000E-10  2.0000E-10  1.0000E-10  1.0000E-10  2.0000E-10  5.0000E-10  8.0000E-10
  11    0.000      1.0000E-10  1.0000E-10  1.0000E-10  1.0000E-10  1.0000E-10  1.0000E-10  2.0000E-10  5.0000E-10   0.000    
  12   1.0000E-10  1.0000E-10  1.0000E-10  1.0000E-10  1.0000E-10  1.0000E-10  1.0000E-10  1.0000E-10  2.0000E-10   0.000    
  13   1.0000E-10  1.0000E-10  2.0000E-10  2.0000E-10  2.0000E-10  2.0000E-10  2.0000E-10  1.0000E-10  1.0000E-10   0.000    
  14    0.000      2.0000E-10  5.0000E-10  5.0000E-10  5.0000E-10  5.0000E-10  5.0000E-10  2.0000E-10  1.0000E-10   0.000    
  15    0.000       0.000      8.0000E-10  8.0000E-10  8.0000E-10  8.0000E-10   0.000       0.000       0.000       0.000    

                  ET RATE =  1.000000E-08

      ET EXTINCTION DEPTH =  0.500000    

 EXTINCTION WATER CONTENT =  0.200000    

EXTINCTION WATER CONTENT FOR CELL AT ROW     1, COLUMN     1 IS LESS THAN RESIDUAL WATER CONTENT-- SETTING EXTINCTION WATER CONTENT EQUAL TO RESIDUAL WATER CONTENT

EXTINCTION WATER CONTENT FOR CELL AT ROW     1, COLUMN     2 IS LESS THAN RESIDUAL WATER CONTENT-- SETTING EXTINCTION WATER CONTENT EQUAL TO RESIDUAL WATER CONTENT

EXTINCTION WATER CONTENT FOR CELL AT ROW     2, COLUMN     1 IS LESS THAN RESIDUAL WATER CONTENT-- SETTING EXTINCTION WATER CONTENT EQUAL TO RESIDUAL WATER CONTENT

EXTINCTION WATER CONTENT FOR CELL AT ROW     2, COLUMN     2 IS LESS THAN RESIDUAL WATER CONTENT-- SETTING EXTINCTION WATER CONTENT EQUAL TO RESIDUAL WATER CONTENT

EXTINCTION WATER CONTENT FOR CELL AT ROW     2, COLUMN     3 IS LESS THAN RESIDUAL WATER CONTENT-- SETTING EXTINCTION WATER CONTENT EQUAL TO RESIDUAL WATER CONTENT

EXTINCTION WATER CONTENT FOR CELL AT ROW     2, COLUMN     6 IS LESS THAN RESIDUAL WATER CONTENT-- SETTING EXTINCTION WATER CONTENT EQUAL TO RESIDUAL WATER CONTENT

EXTINCTION WATER CONTENT FOR CELL AT ROW     2, COLUMN     7 IS LESS THAN RESIDUAL WATER CONTENT-- SETTING EXTINCTION WATER CONTENT EQUAL TO RESIDUAL WATER CONTENT

EXTINCTION WATER CONTENT FOR CELL AT ROW     2, COLUMN     8 IS LESS THAN RESIDUAL WATER CONTENT-- SETTING EXTINCTION WATER CONTENT EQUAL TO RESIDUAL WATER CONTENT

EXTINCTION WATER CONTENT FOR CELL AT ROW     3, COLUMN     2 IS LESS THAN RESIDUAL WATER CONTENT-- SETTING EXTINCTION WATER CONTENT EQUAL TO RESIDUAL WATER CONTENT

EXTINCTION WATER CONTENT FOR CELL AT ROW     3, COLUMN     3 IS LESS THAN RESIDUAL WATER CONTENT-- SETTING EXTINCTION WATER CONTENT EQUAL TO RESIDUAL WATER CONTENT

EXTINCTION WATER CONTENT FOR CELL AT ROW     3, COLUMN     4 IS LESS THAN RESIDUAL WATER CONTENT-- SETTING EXTINCTION WATER CONTENT EQUAL TO RESIDUAL WATER CONTENT

EXTINCTION WATER CONTENT FOR CELL AT ROW     3, COLUMN     5 IS LESS THAN RESIDUAL WATER CONTENT-- SETTING EXTINCTION WATER CONTENT EQUAL TO RESIDUAL WATER CONTENT

EXTINCTION WATER CONTENT FOR CELL AT ROW     3, COLUMN     6 IS LESS THAN RESIDUAL WATER CONTENT-- SETTING EXTINCTION WATER CONTENT EQUAL TO RESIDUAL WATER CONTENT

EXTINCTION WATER CONTENT FOR CELL AT ROW     3, COLUMN     7 IS LESS THAN RESIDUAL WATER CONTENT-- SETTING EXTINCTION WATER CONTENT EQUAL TO RESIDUAL WATER CONTENT

EXTINCTION WATER CONTENT FOR CELL AT ROW     3, COLUMN     8 IS LESS THAN RESIDUAL WATER CONTENT-- SETTING EXTINCTION WATER CONTENT EQUAL TO RESIDUAL WATER CONTENT

EXTINCTION WATER CONTENT FOR CELL AT ROW     4, COLUMN     1 IS LESS THAN RESIDUAL WATER CONTENT-- SETTING EXTINCTION WATER CONTENT EQUAL TO RESIDUAL WATER CONTENT

EXTINCTION WATER CONTENT FOR CELL AT ROW     4, COLUMN     2 IS LESS THAN RESIDUAL WATER CONTENT-- SETTING EXTINCTION WATER CONTENT EQUAL TO RESIDUAL WATER CONTENT

EXTINCTION WATER CONTENT FOR CELL AT ROW     4, COLUMN     3 IS LESS THAN RESIDUAL WATER CONTENT-- SETTING EXTINCTION WATER CONTENT EQUAL TO RESIDUAL WATER CONTENT

EXTINCTION WATER CONTENT FOR CELL AT ROW     4, COLUMN     4 IS LESS THAN RESIDUAL WATER CONTENT-- SETTING EXTINCTION WATER CONTENT EQUAL TO RESIDUAL WATER CONTENT

EXTINCTION WATER CONTENT FOR CELL AT ROW     4, COLUMN     5 IS LESS THAN RESIDUAL WATER CONTENT-- SETTING EXTINCTION WATER CONTENT EQUAL TO RESIDUAL WATER CONTENT

EXTINCTION WATER CONTENT FOR CELL AT ROW     4, COLUMN     6 IS LESS THAN RESIDUAL WATER CONTENT-- SETTING EXTINCTION WATER CONTENT EQUAL TO RESIDUAL WATER CONTENT

EXTINCTION WATER CONTENT FOR CELL AT ROW     4, COLUMN     7 IS LESS THAN RESIDUAL WATER CONTENT-- SETTING EXTINCTION WATER CONTENT EQUAL TO RESIDUAL WATER CONTENT

EXTINCTION WATER CONTENT FOR CELL AT ROW     4, COLUMN     8 IS LESS THAN RESIDUAL WATER CONTENT-- SETTING EXTINCTION WATER CONTENT EQUAL TO RESIDUAL WATER CONTENT

EXTINCTION WATER CONTENT FOR CELL AT ROW     4, COLUMN     9 IS LESS THAN RESIDUAL WATER CONTENT-- SETTING EXTINCTION WATER CONTENT EQUAL TO RESIDUAL WATER CONTENT

EXTINCTION WATER CONTENT FOR CELL AT ROW     5, COLUMN     1 IS LESS THAN RESIDUAL WATER CONTENT-- SETTING EXTINCTION WATER CONTENT EQUAL TO RESIDUAL WATER CONTENT

EXTINCTION WATER CONTENT FOR CELL AT ROW     5, COLUMN     2 IS LESS THAN RESIDUAL WATER CONTENT-- SETTING EXTINCTION WATER CONTENT EQUAL TO RESIDUAL WATER CONTENT

EXTINCTION WATER CONTENT FOR CELL AT ROW     5, COLUMN     3 IS LESS THAN RESIDUAL WATER CONTENT-- SETTING EXTINCTION WATER CONTENT EQUAL TO RESIDUAL WATER CONTENT

EXTINCTION WATER CONTENT FOR CELL AT ROW     5, COLUMN     4 IS LESS THAN RESIDUAL WATER CONTENT-- SETTING EXTINCTION WATER CONTENT EQUAL TO RESIDUAL WATER CONTENT

EXTINCTION WATER CONTENT FOR CELL AT ROW     5, COLUMN     5 IS LESS THAN RESIDUAL WATER CONTENT-- SETTING EXTINCTION WATER CONTENT EQUAL TO RESIDUAL WATER CONTENT

EXTINCTION WATER CONTENT FOR CELL AT ROW     5, COLUMN     6 IS LESS THAN RESIDUAL WATER CONTENT-- SETTING EXTINCTION WATER CONTENT EQUAL TO RESIDUAL WATER CONTENT

EXTINCTION WATER CONTENT FOR CELL AT ROW     5, COLUMN     7 IS LESS THAN RESIDUAL WATER CONTENT-- SETTING EXTINCTION WATER CONTENT EQUAL TO RESIDUAL WATER CONTENT

EXTINCTION WATER CONTENT FOR CELL AT ROW     5, COLUMN     8 IS LESS THAN RESIDUAL WATER CONTENT-- SETTING EXTINCTION WATER CONTENT EQUAL TO RESIDUAL WATER CONTENT

EXTINCTION WATER CONTENT FOR CELL AT ROW     5, COLUMN     9 IS LESS THAN RESIDUAL WATER CONTENT-- SETTING EXTINCTION WATER CONTENT EQUAL TO RESIDUAL WATER CONTENT

EXTINCTION WATER CONTENT FOR CELL AT ROW     5, COLUMN    10 IS LESS THAN RESIDUAL WATER CONTENT-- SETTING EXTINCTION WATER CONTENT EQUAL TO RESIDUAL WATER CONTENT

EXTINCTION WATER CONTENT FOR CELL AT ROW     6, COLUMN     1 IS LESS THAN RESIDUAL WATER CONTENT-- SETTING EXTINCTION WATER CONTENT EQUAL TO RESIDUAL WATER CONTENT

EXTINCTION WATER CONTENT FOR CELL AT ROW     6, COLUMN     2 IS LESS THAN RESIDUAL WATER CONTENT-- SETTING EXTINCTION WATER CONTENT EQUAL TO RESIDUAL WATER CONTENT

EXTINCTION WATER CONTENT FOR CELL AT ROW     6, COLUMN     3 IS LESS THAN RESIDUAL WATER CONTENT-- SETTING EXTINCTION WATER CONTENT EQUAL TO RESIDUAL WATER CONTENT

EXTINCTION WATER CONTENT FOR CELL AT ROW     6, COLUMN     4 IS LESS THAN RESIDUAL WATER CONTENT-- SETTING EXTINCTION WATER CONTENT EQUAL TO RESIDUAL WATER CONTENT

EXTINCTION WATER CONTENT FOR CELL AT ROW     6, COLUMN     5 IS LESS THAN RESIDUAL WATER CONTENT-- SETTING EXTINCTION WATER CONTENT EQUAL TO RESIDUAL WATER CONTENT

EXTINCTION WATER CONTENT FOR CELL AT ROW     6, COLUMN     6 IS LESS THAN RESIDUAL WATER CONTENT-- SETTING EXTINCTION WATER CONTENT EQUAL TO RESIDUAL WATER CONTENT

EXTINCTION WATER CONTENT FOR CELL AT ROW     6, COLUMN     7 IS LESS THAN RESIDUAL WATER CONTENT-- SETTING EXTINCTION WATER CONTENT EQUAL TO RESIDUAL WATER CONTENT

EXTINCTION WATER CONTENT FOR CELL AT ROW     6, COLUMN     8 IS LESS THAN RESIDUAL WATER CONTENT-- SETTING EXTINCTION WATER CONTENT EQUAL TO RESIDUAL WATER CONTENT

EXTINCTION WATER CONTENT FOR CELL AT ROW     6, COLUMN     9 IS LESS THAN RESIDUAL WATER CONTENT-- SETTING EXTINCTION WATER CONTENT EQUAL TO RESIDUAL WATER CONTENT

EXTINCTION WATER CONTENT FOR CELL AT ROW     6, COLUMN    10 IS LESS THAN RESIDUAL WATER CONTENT-- SETTING EXTINCTION WATER CONTENT EQUAL TO RESIDUAL WATER CONTENT

EXTINCTION WATER CONTENT FOR CELL AT ROW     7, COLUMN     1 IS LESS THAN RESIDUAL WATER CONTENT-- SETTING EXTINCTION WATER CONTENT EQUAL TO RESIDUAL WATER CONTENT

EXTINCTION WATER CONTENT FOR CELL AT ROW     7, COLUMN     2 IS LESS THAN RESIDUAL WATER CONTENT-- SETTING EXTINCTION WATER CONTENT EQUAL TO RESIDUAL WATER CONTENT

EXTINCTION WATER CONTENT FOR CELL AT ROW     7, COLUMN     3 IS LESS THAN RESIDUAL WATER CONTENT-- SETTING EXTINCTION WATER CONTENT EQUAL TO RESIDUAL WATER CONTENT

EXTINCTION WATER CONTENT FOR CELL AT ROW     7, COLUMN     4 IS LESS THAN RESIDUAL WATER CONTENT-- SETTING EXTINCTION WATER CONTENT EQUAL TO RESIDUAL WATER CONTENT

EXTINCTION WATER CONTENT FOR CELL AT ROW     7, COLUMN     5 IS LESS THAN RESIDUAL WATER CONTENT-- SETTING EXTINCTION WATER CONTENT EQUAL TO RESIDUAL WATER CONTENT

EXTINCTION WATER CONTENT FOR CELL AT ROW     7, COLUMN     6 IS LESS THAN RESIDUAL WATER CONTENT-- SETTING EXTINCTION WATER CONTENT EQUAL TO RESIDUAL WATER CONTENT

EXTINCTION WATER CONTENT FOR CELL AT ROW     7, COLUMN     7 IS LESS THAN RESIDUAL WATER CONTENT-- SETTING EXTINCTION WATER CONTENT EQUAL TO RESIDUAL WATER CONTENT

EXTINCTION WATER CONTENT FOR CELL AT ROW     7, COLUMN     8 IS LESS THAN RESIDUAL WATER CONTENT-- SETTING EXTINCTION WATER CONTENT EQUAL TO RESIDUAL WATER CONTENT

EXTINCTION WATER CONTENT FOR CELL AT ROW     7, COLUMN     9 IS LESS THAN RESIDUAL WATER CONTENT-- SETTING EXTINCTION WATER CONTENT EQUAL TO RESIDUAL WATER CONTENT

EXTINCTION WATER CONTENT FOR CELL AT ROW     8, COLUMN     2 IS LESS THAN RESIDUAL WATER CONTENT-- SETTING EXTINCTION WATER CONTENT EQUAL TO RESIDUAL WATER CONTENT

EXTINCTION WATER CONTENT FOR CELL AT ROW     8, COLUMN     3 IS LESS THAN RESIDUAL WATER CONTENT-- SETTING EXTINCTION WATER CONTENT EQUAL TO RESIDUAL WATER CONTENT

EXTINCTION WATER CONTENT FOR CELL AT ROW     8, COLUMN     4 IS LESS THAN RESIDUAL WATER CONTENT-- SETTING EXTINCTION WATER CONTENT EQUAL TO RESIDUAL WATER CONTENT

EXTINCTION WATER CONTENT FOR CELL AT ROW     8, COLUMN     5 IS LESS THAN RESIDUAL WATER CONTENT-- SETTING EXTINCTION WATER CONTENT EQUAL TO RESIDUAL WATER CONTENT

EXTINCTION WATER CONTENT FOR CELL AT ROW     8, COLUMN     6 IS LESS THAN RESIDUAL WATER CONTENT-- SETTING EXTINCTION WATER CONTENT EQUAL TO RESIDUAL WATER CONTENT

EXTINCTION WATER CONTENT FOR CELL AT ROW     8, COLUMN     7 IS LESS THAN RESIDUAL WATER CONTENT-- SETTING EXTINCTION WATER CONTENT EQUAL TO RESIDUAL WATER CONTENT

EXTINCTION WATER CONTENT FOR CELL AT ROW     8, COLUMN     8 IS LESS THAN RESIDUAL WATER CONTENT-- SETTING EXTINCTION WATER CONTENT EQUAL TO RESIDUAL WATER CONTENT

EXTINCTION WATER CONTENT FOR CELL AT ROW     8, COLUMN     9 IS LESS THAN RESIDUAL WATER CONTENT-- SETTING EXTINCTION WATER CONTENT EQUAL TO RESIDUAL WATER CONTENT

EXTINCTION WATER CONTENT FOR CELL AT ROW     9, COLUMN     2 IS LESS THAN RESIDUAL WATER CONTENT-- SETTING EXTINCTION WATER CONTENT EQUAL TO RESIDUAL WATER CONTENT

EXTINCTION WATER CONTENT FOR CELL AT ROW     9, COLUMN     3 IS LESS THAN RESIDUAL WATER CONTENT-- SETTING EXTINCTION WATER CONTENT EQUAL TO RESIDUAL WATER CONTENT

EXTINCTION WATER CONTENT FOR CELL AT ROW     9, COLUMN     4 IS LESS THAN RESIDUAL WATER CONTENT-- SETTING EXTINCTION WATER CONTENT EQUAL TO RESIDUAL WATER CONTENT

EXTINCTION WATER CONTENT FOR CELL AT ROW     9, COLUMN     5 IS LESS THAN RESIDUAL WATER CONTENT-- SETTING EXTINCTION WATER CONTENT EQUAL TO RESIDUAL WATER CONTENT

EXTINCTION WATER CONTENT FOR CELL AT ROW     9, COLUMN     6 IS LESS THAN RESIDUAL WATER CONTENT-- SETTING EXTINCTION WATER CONTENT EQUAL TO RESIDUAL WATER CONTENT

EXTINCTION WATER CONTENT FOR CELL AT ROW     9, COLUMN     7 IS LESS THAN RESIDUAL WATER CONTENT-- SETTING EXTINCTION WATER CONTENT EQUAL TO RESIDUAL WATER CONTENT

EXTINCTION WATER CONTENT FOR CELL AT ROW     9, COLUMN     8 IS LESS THAN RESIDUAL WATER CONTENT-- SETTING EXTINCTION WATER CONTENT EQUAL TO RESIDUAL WATER CONTENT

EXTINCTION WATER CONTENT FOR CELL AT ROW     9, COLUMN     9 IS LESS THAN RESIDUAL WATER CONTENT-- SETTING EXTINCTION WATER CONTENT EQUAL TO RESIDUAL WATER CONTENT

EXTINCTION WATER CONTENT FOR CELL AT ROW    10, COLUMN     2 IS LESS THAN RESIDUAL WATER CONTENT-- SETTING EXTINCTION WATER CONTENT EQUAL TO RESIDUAL WATER CONTENT

EXTINCTION WATER CONTENT FOR CELL AT ROW    10, COLUMN     3 IS LESS THAN RESIDUAL WATER CONTENT-- SETTING EXTINCTION WATER CONTENT EQUAL TO RESIDUAL WATER CONTENT

EXTINCTION WATER CONTENT FOR CELL AT ROW    10, COLUMN     4 IS LESS THAN RESIDUAL WATER CONTENT-- SETTING EXTINCTION WATER CONTENT EQUAL TO RESIDUAL WATER CONTENT

EXTINCTION WATER CONTENT FOR CELL AT ROW    10, COLUMN     5 IS LESS THAN RESIDUAL WATER CONTENT-- SETTING EXTINCTION WATER CONTENT EQUAL TO RESIDUAL WATER CONTENT

EXTINCTION WATER CONTENT FOR CELL AT ROW    10, COLUMN     6 IS LESS THAN RESIDUAL WATER CONTENT-- SETTING EXTINCTION WATER CONTENT EQUAL TO RESIDUAL WATER CONTENT

EXTINCTION WATER CONTENT FOR CELL AT ROW    10, COLUMN     7 IS LESS THAN RESIDUAL WATER CONTENT-- SETTING EXTINCTION WATER CONTENT EQUAL TO RESIDUAL WATER CONTENT

EXTINCTION WATER CONTENT FOR CELL AT ROW    10, COLUMN     8 IS LESS THAN RESIDUAL WATER CONTENT-- SETTING EXTINCTION WATER CONTENT EQUAL TO RESIDUAL WATER CONTENT

EXTINCTION WATER CONTENT FOR CELL AT ROW    10, COLUMN     9 IS LESS THAN RESIDUAL WATER CONTENT-- SETTING EXTINCTION WATER CONTENT EQUAL TO RESIDUAL WATER CONTENT

EXTINCTION WATER CONTENT FOR CELL AT ROW    10, COLUMN    10 IS LESS THAN RESIDUAL WATER CONTENT-- SETTING EXTINCTION WATER CONTENT EQUAL TO RESIDUAL WATER CONTENT

EXTINCTION WATER CONTENT FOR CELL AT ROW    11, COLUMN     2 IS LESS THAN RESIDUAL WATER CONTENT-- SETTING EXTINCTION WATER CONTENT EQUAL TO RESIDUAL WATER CONTENT

EXTINCTION WATER CONTENT FOR CELL AT ROW    11, COLUMN     3 IS LESS THAN RESIDUAL WATER CONTENT-- SETTING EXTINCTION WATER CONTENT EQUAL TO RESIDUAL WATER CONTENT

EXTINCTION WATER CONTENT FOR CELL AT ROW    11, COLUMN     4 IS LESS THAN RESIDUAL WATER CONTENT-- SETTING EXTINCTION WATER CONTENT EQUAL TO RESIDUAL WATER CONTENT

EXTINCTION WATER CONTENT FOR CELL AT ROW    11, COLUMN     5 IS LESS THAN RESIDUAL WATER CONTENT-- SETTING EXTINCTION WATER CONTENT EQUAL TO RESIDUAL WATER CONTENT

EXTINCTION WATER CONTENT FOR CELL AT ROW    11, COLUMN     6 IS LESS THAN RESIDUAL WATER CONTENT-- SETTING EXTINCTION WATER CONTENT EQUAL TO RESIDUAL WATER CONTENT

EXTINCTION WATER CONTENT FOR CELL AT ROW    11, COLUMN     7 IS LESS THAN RESIDUAL WATER CONTENT-- SETTING EXTINCTION WATER CONTENT EQUAL TO RESIDUAL WATER CONTENT

EXTINCTION WATER CONTENT FOR CELL AT ROW    11, COLUMN     8 IS LESS THAN RESIDUAL WATER CONTENT-- SETTING EXTINCTION WATER CONTENT EQUAL TO RESIDUAL WATER CONTENT

EXTINCTION WATER CONTENT FOR CELL AT ROW    11, COLUMN     9 IS LESS THAN RESIDUAL WATER CONTENT-- SETTING EXTINCTION WATER CONTENT EQUAL TO RESIDUAL WATER CONTENT

EXTINCTION WATER CONTENT FOR CELL AT ROW    12, COLUMN     1 IS LESS THAN RESIDUAL WATER CONTENT-- SETTING EXTINCTION WATER CONTENT EQUAL TO RESIDUAL WATER CONTENT

EXTINCTION WATER CONTENT FOR CELL AT ROW    12, COLUMN     2 IS LESS THAN RESIDUAL WATER CONTENT-- SETTING EXTINCTION WATER CONTENT EQUAL TO RESIDUAL WATER CONTENT

EXTINCTION WATER CONTENT FOR CELL AT ROW    12, COLUMN     3 IS LESS THAN RESIDUAL WATER CONTENT-- SETTING EXTINCTION WATER CONTENT EQUAL TO RESIDUAL WATER CONTENT

EXTINCTION WATER CONTENT FOR CELL AT ROW    12, COLUMN     4 IS LESS THAN RESIDUAL WATER CONTENT-- SETTING EXTINCTION WATER CONTENT EQUAL TO RESIDUAL WATER CONTENT

EXTINCTION WATER CONTENT FOR CELL AT ROW    12, COLUMN     5 IS LESS THAN RESIDUAL WATER CONTENT-- SETTING EXTINCTION WATER CONTENT EQUAL TO RESIDUAL WATER CONTENT

EXTINCTION WATER CONTENT FOR CELL AT ROW    12, COLUMN     6 IS LESS THAN RESIDUAL WATER CONTENT-- SETTING EXTINCTION WATER CONTENT EQUAL TO RESIDUAL WATER CONTENT

EXTINCTION WATER CONTENT FOR CELL AT ROW    12, COLUMN     7 IS LESS THAN RESIDUAL WATER CONTENT-- SETTING EXTINCTION WATER CONTENT EQUAL TO RESIDUAL WATER CONTENT

EXTINCTION WATER CONTENT FOR CELL AT ROW    12, COLUMN     8 IS LESS THAN RESIDUAL WATER CONTENT-- SETTING EXTINCTION WATER CONTENT EQUAL TO RESIDUAL WATER CONTENT

EXTINCTION WATER CONTENT FOR CELL AT ROW    12, COLUMN     9 IS LESS THAN RESIDUAL WATER CONTENT-- SETTING EXTINCTION WATER CONTENT EQUAL TO RESIDUAL WATER CONTENT

EXTINCTION WATER CONTENT FOR CELL AT ROW    13, COLUMN     1 IS LESS THAN RESIDUAL WATER CONTENT-- SETTING EXTINCTION WATER CONTENT EQUAL TO RESIDUAL WATER CONTENT

EXTINCTION WATER CONTENT FOR CELL AT ROW    13, COLUMN     2 IS LESS THAN RESIDUAL WATER CONTENT-- SETTING EXTINCTION WATER CONTENT EQUAL TO RESIDUAL WATER CONTENT

EXTINCTION WATER CONTENT FOR CELL AT ROW    13, COLUMN     3 IS LESS THAN RESIDUAL WATER CONTENT-- SETTING EXTINCTION WATER CONTENT EQUAL TO RESIDUAL WATER CONTENT

EXTINCTION WATER CONTENT FOR CELL AT ROW    13, COLUMN     4 IS LESS THAN RESIDUAL WATER CONTENT-- SETTING EXTINCTION WATER CONTENT EQUAL TO RESIDUAL WATER CONTENT

EXTINCTION WATER CONTENT FOR CELL AT ROW    13, COLUMN     5 IS LESS THAN RESIDUAL WATER CONTENT-- SETTING EXTINCTION WATER CONTENT EQUAL TO RESIDUAL WATER CONTENT

EXTINCTION WATER CONTENT FOR CELL AT ROW    13, COLUMN     6 IS LESS THAN RESIDUAL WATER CONTENT-- SETTING EXTINCTION WATER CONTENT EQUAL TO RESIDUAL WATER CONTENT

EXTINCTION WATER CONTENT FOR CELL AT ROW    13, COLUMN     7 IS LESS THAN RESIDUAL WATER CONTENT-- SETTING EXTINCTION WATER CONTENT EQUAL TO RESIDUAL WATER CONTENT

EXTINCTION WATER CONTENT FOR CELL AT ROW    13, COLUMN     8 IS LESS THAN RESIDUAL WATER CONTENT-- SETTING EXTINCTION WATER CONTENT EQUAL TO RESIDUAL WATER CONTENT

EXTINCTION WATER CONTENT FOR CELL AT ROW    13, COLUMN     9 IS LESS THAN RESIDUAL WATER CONTENT-- SETTING EXTINCTION WATER CONTENT EQUAL TO RESIDUAL WATER CONTENT

EXTINCTION WATER CONTENT FOR CELL AT ROW    14, COLUMN     2 IS LESS THAN RESIDUAL WATER CONTENT-- SETTING EXTINCTION WATER CONTENT EQUAL TO RESIDUAL WATER CONTENT

EXTINCTION WATER CONTENT FOR CELL AT ROW    14, COLUMN     3 IS LESS THAN RESIDUAL WATER CONTENT-- SETTING EXTINCTION WATER CONTENT EQUAL TO RESIDUAL WATER CONTENT

EXTINCTION WATER CONTENT FOR CELL AT ROW    14, COLUMN     4 IS LESS THAN RESIDUAL WATER CONTENT-- SETTING EXTINCTION WATER CONTENT EQUAL TO RESIDUAL WATER CONTENT

EXTINCTION WATER CONTENT FOR CELL AT ROW    14, COLUMN     5 IS LESS THAN RESIDUAL WATER CONTENT-- SETTING EXTINCTION WATER CONTENT EQUAL TO RESIDUAL WATER CONTENT

EXTINCTION WATER CONTENT FOR CELL AT ROW    14, COLUMN     6 IS LESS THAN RESIDUAL WATER CONTENT-- SETTING EXTINCTION WATER CONTENT EQUAL TO RESIDUAL WATER CONTENT

EXTINCTION WATER CONTENT FOR CELL AT ROW    14, COLUMN     7 IS LESS THAN RESIDUAL WATER CONTENT-- SETTING EXTINCTION WATER CONTENT EQUAL TO RESIDUAL WATER CONTENT

EXTINCTION WATER CONTENT FOR CELL AT ROW    14, COLUMN     8 IS LESS THAN RESIDUAL WATER CONTENT-- SETTING EXTINCTION WATER CONTENT EQUAL TO RESIDUAL WATER CONTENT

EXTINCTION WATER CONTENT FOR CELL AT ROW    14, COLUMN     9 IS LESS THAN RESIDUAL WATER CONTENT-- SETTING EXTINCTION WATER CONTENT EQUAL TO RESIDUAL WATER CONTENT

EXTINCTION WATER CONTENT FOR CELL AT ROW    15, COLUMN     3 IS LESS THAN RESIDUAL WATER CONTENT-- SETTING EXTINCTION WATER CONTENT EQUAL TO RESIDUAL WATER CONTENT

EXTINCTION WATER CONTENT FOR CELL AT ROW    15, COLUMN     4 IS LESS THAN RESIDUAL WATER CONTENT-- SETTING EXTINCTION WATER CONTENT EQUAL TO RESIDUAL WATER CONTENT

EXTINCTION WATER CONTENT FOR CELL AT ROW    15, COLUMN     5 IS LESS THAN RESIDUAL WATER CONTENT-- SETTING EXTINCTION WATER CONTENT EQUAL TO RESIDUAL WATER CONTENT

EXTINCTION WATER CONTENT FOR CELL AT ROW    15, COLUMN     6 IS LESS THAN RESIDUAL WATER CONTENT-- SETTING EXTINCTION WATER CONTENT EQUAL TO RESIDUAL WATER CONTENT

       AIR ENTRY PRESSURE =  -1.10000    

            ROOT PRESSURE =  -75.0000    

            ROOT ACTIVITY =   1.00000    
 # AG well list

 PROCESSING WELL LIST

 LAYER   ROW   COL   MAX STRESS RATE         
 --------------------------------------------
      1      1      6      4     -0.1000E+05
      2      1      6      5     -0.1000E+05
      3      1      7      4     -0.1000E+05
      4      1      7      5     -0.1000E+05
      5      1      8      4     -0.1000E+05
      6      1      8      5     -0.1000E+05

 FINISHED READING WELL LIST

      6 WELLS

 PROCESSING AG STRESS PERIOD DATA
 # AG stress period

 READING AG STRESS PERIOD DATA

 READING IRRIGATION WELL

 END PROCESSING AG STRESS PERIOD DATA OPTIONS
 
 SOLVING FOR HEAD 
                                                   Max.-Head-Change                         Max.-Flux-Residual
  Residual-Control   Outer-Iter.   Inner-Iter.     Column Row Layer    Maximum-Head-Change  Column Row Layer    Maximum-Flux-Residual          L2-NORM 
          0                 1           6             2    2     1      -0.2729307452E+02       3    3    1        -0.3343270791E+01      0.9349602253E+01
          0                 2           6             1    1     1      -0.3197666082E+02       1   13    1        -0.6358527916E+02      0.6379400781E+02
          0                 3           5             1    1     1      -0.1504245443E+01       6   13    1        -0.2192613169E+01      0.3421341242E+01
          0                 4           5             5   13     1      -0.1460050815E+00       5   13    1        -0.2979620028E+00      0.3680363586E+00
          0                 5           4             5   14     1       0.3048806951E-01       5   13    1         0.1483208106E-01      0.2476348557E-01
          0                 6           2             5   14     1      -0.1193416356E-02       5   13    1        -0.5919336299E-03      0.1772759968E-02
          0                 7           1             5   14     1       0.1314838774E-04       7   10    1         0.2242323671E-04      0.6971741025E-04

    ------------------------------------------------
       NWT REQUIRED            7 OUTER ITERATIONS 
       AND A TOTAL OF         29 INNER ITERATIONS.
    ------------------------------------------------

 OUTPUT CONTROL FOR STRESS PERIOD    1   TIME STEP    1
    PRINT BUDGET
    SAVE BUDGET
 UBDSV2 SAVING "   CONSTANT HEAD" ON UNIT 102 AT TIME STEP  1, STRESS PERIOD   1
 UBDSV1 SAVING "FLOW RIGHT FACE " ON UNIT 102 AT TIME STEP  1, STRESS PERIOD   1
 UBDSV1 SAVING "FLOW FRONT FACE " ON UNIT 102 AT TIME STEP  1, STRESS PERIOD   1

  HEAD DEP BOUNDS   PERIOD    1   STEP     1
 BOUNDARY      1   LAYER   1   ROW    13   COL     1   RATE   -0.287309    
 BOUNDARY      2   LAYER   1   ROW    14   COL     9   RATE    0.285356    



 STREAM LISTING     PERIOD      1   STEP        1

 LAYER ROW COL. STREAM  RCH.  FLOW INTO     FLOW TO   FLOW OUT OF   OVRLND.     DIRECT     STREAM       STREAM     STREAM     STREAM   STREAMBED  STREAMBED
                SEG.NO.  NO.  STRM. RCH.    AQUIFER    STRM. RCH.    RUNOFF     PRECIP       ET          HEAD       DEPTH      WIDTH   CONDCTNC.   GRADIENT

   1    1    1     1     1    5.0000E+00  9.9080E-02   4.9009E+00  0.000E+00  0.000E+00  0.000E+00  1.09378E+03  7.365E-01  5.893E+00  2.652E-02  1.246E+00
   1    2    2     1     2    4.9009E+00  1.5199E-01   4.7489E+00  0.000E+00  0.000E+00  0.000E+00  1.08879E+03  7.320E-01  5.818E+00  4.072E-02  1.244E+00
   1    3    3     1     3    4.7489E+00  1.2820E-01   4.6207E+00  0.000E+00  0.000E+00  0.000E+00  1.08315E+03  7.269E-01  5.733E+00  3.440E-02  1.242E+00
   1    3    4     1     4    4.6207E+00  1.1689E-01   4.5038E+00  0.000E+00  0.000E+00  0.000E+00  1.07813E+03  7.223E-01  5.658E+00  3.140E-02  1.241E+00
   1    4    5     2     1    2.5038E+00  2.5694E-01   2.2469E+00  0.000E+00  0.000E+00  0.000E+00  1.07223E+03  2.942E-01  1.200E+01  7.800E-02  1.098E+00
   1    5    6     2     2    2.2469E+00  1.9662E-01   2.0503E+00  0.000E+00  0.000E+00  0.000E+00  1.06679E+03  2.770E-01  1.200E+01  6.000E-02  1.092E+00
   1    6    6     2     3    2.0503E+00  1.9569E-01   1.8546E+00  0.000E+00  0.000E+00  0.000E+00  1.06205E+03  2.615E-01  1.200E+01  6.000E-02  1.087E+00
   1    7    6     2     4    1.8546E+00  1.9473E-01   1.6599E+00  0.000E+00  0.000E+00  0.000E+00  1.05732E+03  2.455E-01  1.200E+01  6.000E-02  1.082E+00
   1    8    6     2     5    1.6599E+00  1.9373E-01   1.4661E+00  0.000E+00  0.000E+00  0.000E+00  1.05259E+03  2.288E-01  1.200E+01  6.000E-02  1.076E+00
   1    3    5     3     1    2.0000E+00  2.8252E-01   1.7175E+00  0.000E+00  0.000E+00  0.000E+00  1.07555E+03  1.909E+00  9.636E+00  7.227E-02  1.955E+00
   1    3    6     3     2    1.7175E+00  2.4905E-01   1.4684E+00  0.000E+00  0.000E+00  0.000E+00  1.07264E+03  1.727E+00  8.909E+00  6.682E-02  1.864E+00
   1    3    7     3     3    1.4684E+00  1.9718E-01   1.2712E+00  0.000E+00  0.000E+00  0.000E+00  1.06987E+03  1.555E+00  8.218E+00  5.547E-02  1.777E+00
   1    4    8     3     4    1.2712E+00  2.2567E-01   1.0456E+00  0.000E+00  0.000E+00  0.000E+00  1.06682E+03  1.364E+00  7.455E+00  6.709E-02  1.682E+00
   1    5    8     3     5    1.0456E+00  1.5790E-01   8.8768E-01  0.000E+00  0.000E+00  0.000E+00  1.06362E+03  1.164E+00  6.655E+00  4.991E-02  1.582E+00
   1    6    8     3     6    8.8768E-01  5.5980E-02   8.3170E-01  0.000E+00  0.000E+00  0.000E+00  1.06158E+03  1.036E+00  6.145E+00  1.844E-02  1.518E+00
   1    5   10     4     1    1.0000E+01  9.0919E-02   9.9091E+00  0.000E+00  0.000E+00  0.000E+00  1.07836E+03  6.368E-01  1.000E+01  2.500E-02  1.212E+00
   1    5    9     4     2    9.9091E+00  1.8158E-01   9.7275E+00  0.000E+00  0.000E+00  0.000E+00  1.07154E+03  6.315E-01  1.000E+01  5.000E-02  1.211E+00
   1    6    8     4     3    9.7275E+00  1.2689E-01   9.6006E+00  0.000E+00  0.000E+00  0.000E+00  1.06381E+03  6.256E-01  1.000E+01  3.500E-02  1.209E+00
   1    6    8     5     1    1.0432E+01  2.2686E-01   1.0205E+01  0.000E+00  0.000E+00  0.000E+00  1.05868E+03  6.790E-01  1.542E+01  6.166E-02  1.226E+00
   1    7    7     5     2    1.0205E+01  2.7894E-01   9.9265E+00  0.000E+00  0.000E+00  0.000E+00  1.05417E+03  6.732E-01  1.519E+01  7.594E-02  1.224E+00
   1    8    7     5     3    9.9265E+00  1.9221E-01   9.7343E+00  0.000E+00  0.000E+00  0.000E+00  1.04992E+03  6.676E-01  1.497E+01  5.241E-02  1.223E+00
   1    8    6     5     4    9.7343E+00  1.3577E-01   9.5985E+00  0.000E+00  0.000E+00  0.000E+00  1.04691E+03  6.637E-01  1.482E+01  3.706E-02  1.221E+00
   1    9    6     6     1    1.1065E+01  2.2465E-01   1.0840E+01  0.000E+00  0.000E+00  0.000E+00  1.04347E+03  7.442E-01  1.200E+01  6.000E-02  1.248E+00
   1   10    7     6     2    1.0840E+01  2.2410E-01   1.0616E+01  0.000E+00  0.000E+00  0.000E+00  1.03892E+03  7.350E-01  1.200E+01  6.000E-02  1.245E+00
   1   11    7     6     3    1.0616E+01  2.2354E-01   1.0392E+01  0.000E+00  0.000E+00  0.000E+00  1.03436E+03  7.257E-01  1.200E+01  6.000E-02  1.242E+00
   1   12    7     6     4    1.0392E+01  2.2299E-01   1.0169E+01  0.000E+00  0.000E+00  0.000E+00  1.02981E+03  7.165E-01  1.200E+01  6.000E-02  1.239E+00
   1   13    7     6     5    1.0169E+01 -1.0974E-01   1.0279E+01  0.000E+00  0.000E+00  0.000E+00  1.02662E+03  7.141E-01  1.200E+01  2.400E-01 -1.524E-01
   1   14    9     7     1    1.5000E+02  1.3299E+00   1.4867E+02  0.000E+00  0.000E+00  0.000E+00  1.03987E+03  2.288E+00  5.529E+01  5.593E-01  7.926E-01
   1   13    8     7     2    1.4867E+02  1.8245E+00   1.4685E+02  0.000E+00  0.000E+00  0.000E+00  1.03478E+03  2.279E+00  5.526E+01  6.148E-01  9.892E-01
   1   13    7     7     3    1.4685E+02  1.4573E+00   1.4539E+02  0.000E+00  0.000E+00  0.000E+00  1.02969E+03  2.271E+00  5.522E+01  5.585E-01  8.698E-01
   1   13    6     8     1    1.5567E+02  8.1890E-01   1.5485E+02  0.000E+00  0.000E+00  0.000E+00  1.02473E+03  2.853E+00  4.138E+01  4.216E-01  6.474E-01
   1   13    5     8     2    1.5485E+02  9.0639E-02   1.5476E+02  0.000E+00  0.000E+00  0.000E+00  1.01848E+03  2.850E+00  4.133E+01  4.212E-01  7.174E-02
   1   13    4     8     3    1.5476E+02 -2.7168E+00   1.5747E+02  0.000E+00  0.000E+00  0.000E+00  1.01223E+03  2.859E+00  4.146E+01  4.225E+00 -2.143E-01
   1   13    3     8     4    1.5747E+02 -3.7756E+00   1.6125E+02  0.000E+00  0.000E+00  0.000E+00  1.00601E+03  2.882E+00  4.178E+01  4.258E+00 -2.956E-01
   1   13    2     8     5    1.6125E+02 -2.6098E+00   1.6386E+02  0.000E+00  0.000E+00  0.000E+00  9.99778E+02  2.903E+00  4.209E+01  4.290E+00 -2.028E-01
   1   13    1     8     6    1.6386E+02 -1.9855E+00   1.6585E+02  0.000E+00  0.000E+00  0.000E+00  9.94793E+02  2.918E+00  4.232E+01  2.587E+00 -2.558E-01



 UBDSV3 SAVING "           GW ET" ON UNIT  61 AT TIME STEP  1, STRESS PERIOD   1
 UBDSV3 SAVING "    UZF RECHARGE" ON UNIT  61 AT TIME STEP  1, STRESS PERIOD   1
 UBDSV3 SAVING " SURFACE LEAKAGE" ON UNIT  61 AT TIME STEP  1, STRESS PERIOD   1
 UBDSV3 SAVING "       HORT+DUNN" ON UNIT  61 AT TIME STEP  1, STRESS PERIOD   1
 UBDSV3 SAVING "  STORAGE CHANGE" ON UNIT  61 AT TIME STEP  1, STRESS PERIOD   1


UNSATURATED ZONE PACKAGE VOLUMETRIC BUDGET FOR  TIME STEP     1 STRESS PERIOD    1
  ------------------------------------------------------------------------------



     CUMULATIVE VOLUMES      L**3       RATES FOR THIS TIME STEP      L**3/T
     ------------------                 ------------------------

           IN:                                      IN:
           ---                                      ---
        INFILTRATION =       73224.0000          INFILTRATION =           0.8475

          OUT:                                     OUT:
          ----                                     ----
              UZF ET =       0.0000E+00                UZF ET =       0.0000E+00
        UZF RECHARGE =       73224.0000          UZF RECHARGE =           0.8475

            IN - OUT =       0.0000E+00              IN - OUT =       0.0000E+00

          STORAGE:                                 STORAGE:
          --------                                 --------
      STORAGE CHANGE =       0.0000E+00        STORAGE CHANGE =       0.0000E+00

 PERCENT DISCREPANCY IS DIFFERENCE BETWEEN IN-OUT MINUS CHANGE IN STORAGE
 DIVIDED BY THE AVERAGE OF IN AND OUT TIMES 100

 PERCENT DISCREPANCY =           0.00     PERCENT DISCREPANCY =           0.00






1
  VOLUMETRIC BUDGET FOR ENTIRE MODEL AT END OF TIME STEP    1, STRESS PERIOD   1
  ------------------------------------------------------------------------------

     CUMULATIVE VOLUMES      L**3       RATES FOR THIS TIME STEP      L**3/T
     ------------------                 ------------------------

           IN:                                      IN:
           ---                                      ---
             STORAGE     =           0.0000               STORAGE     =           0.0000
       CONSTANT HEAD     =           0.0000         CONSTANT HEAD     =           0.0000
     HEAD DEP BOUNDS     =       24654.7383       HEAD DEP BOUNDS     =           0.2854
      STREAM LEAKAGE     =      894399.3125        STREAM LEAKAGE     =          10.3518
        UZF RECHARGE     =       73223.9531          UZF RECHARGE     =           0.8475
               GW ET     =           0.0000                 GW ET     =           0.0000
     SURFACE LEAKAGE     =           0.0000       SURFACE LEAKAGE     =           0.0000

                TOTAL IN =      992278.0000                  TOTAL IN =          11.4847

          OUT:                                     OUT:
          ----                                     ----
             STORAGE     =           0.0000               STORAGE     =           0.0000
       CONSTANT HEAD     =           0.0000         CONSTANT HEAD     =           0.0000
     HEAD DEP BOUNDS     =       24823.4590       HEAD DEP BOUNDS     =           0.2873
      STREAM LEAKAGE     =      967454.4375        STREAM LEAKAGE     =          11.1974
        UZF RECHARGE     =           0.0000          UZF RECHARGE     =           0.0000
               GW ET     =           0.0000                 GW ET     =           0.0000
     SURFACE LEAKAGE     =           0.0000       SURFACE LEAKAGE     =           0.0000

               TOTAL OUT =      992277.8750                 TOTAL OUT =          11.4847

                IN - OUT =           0.1250                  IN - OUT =       9.5367E-07

     PERCENT DISCREPANCY =           0.00         PERCENT DISCREPANCY =           0.00






         TIME SUMMARY AT END OF TIME STEP    1 IN STRESS PERIOD    1
                    SECONDS     MINUTES      HOURS       DAYS        YEARS
                    -----------------------------------------------------------
   TIME STEP LENGTH  86400.      1440.0      24.000      1.0000     2.73785E-03
 STRESS PERIOD TIME  86400.      1440.0      24.000      1.0000     2.73785E-03
         TOTAL TIME  86400.      1440.0      24.000      1.0000     2.73785E-03
1
1
                            STRESS PERIOD NO.    2, LENGTH =   2630000.    
                            -----------------------------------------------

                              NUMBER OF TIME STEPS =    30

                               MULTIPLIER FOR DELT =     1.000

                            INITIAL TIME STEP SIZE =   87666.66    

 REUSING NON-PARAMETER GHB CELLS FROM LAST STRESS PERIOD

      2 GHB CELLS

 REUSING STREAM SEGMENT DATA FROM LAST STRESS PERIOD



            AREAL INFILTRATION RATE
 READING ON UNIT   19 WITH FORMAT: (10F4.0)            

            1           2           3           4           5           6           7           8           9          10
 ........................................................................................................................
   1   1.2000E-09   0.000       0.000       0.000       0.000       0.000       0.000       0.000       0.000       0.000    
   2   2.1000E-09  2.0000E-09  8.0000E-10  8.5000E-09   0.000       0.000       0.000       0.000       0.000       0.000    
   3   5.0000E-10  1.1000E-09  8.8000E-09  5.5000E-09   0.000       0.000       0.000       0.000       0.000       0.000    
   4   8.5000E-09  1.1000E-09  1.1000E-09  1.1000E-09  2.0000E-09   0.000       0.000       0.000       0.000       0.000    
   5   8.5000E-09  1.1000E-09  1.1000E-09  1.1000E-09  1.1000E-09   0.000       0.000       0.000       0.000       0.000    
   6   8.5000E-09  5.2000E-09  2.1000E-09  1.1000E-09  1.5000E-09   0.000       0.000       0.000       0.000       0.000    
   7   8.5000E-09  5.2000E-09  2.1000E-09  1.2000E-09  2.0000E-09   0.000       0.000       0.000       0.000       0.000    
   8   5.0000E-10  5.2000E-09  2.1000E-09  1.2000E-09  5.0000E-09   0.000       0.000       0.000       0.000       0.000    
   9   5.0000E-10  5.2000E-09  2.1000E-09  1.2000E-09  5.0000E-09   0.000       0.000       0.000       0.000       0.000    
  10   5.0000E-10  5.2000E-09  2.1000E-09  1.2000E-09  5.8000E-09   0.000       0.000       0.000       0.000       0.000    
  11   1.0000E-10  1.1000E-09  1.1000E-09  1.2000E-09  5.0000E-09   0.000       0.000       0.000       0.000       0.000    
  12   1.1000E-09  1.1000E-09  1.1000E-09  1.1000E-09  2.0000E-09   0.000       0.000       0.000       0.000       0.000    
  13   1.1000E-09  2.2000E-09  2.2000E-09  2.1000E-09  1.0000E-09   0.000       0.000       0.000       0.000       0.000    
  14   2.0000E-10  5.5000E-09  5.5000E-09  5.2000E-09  1.0000E-09   0.000       0.000       0.000       0.000       0.000    
  15    0.000      8.8000E-09  8.8000E-09   0.000       0.000       0.000       0.000       0.000       0.000       0.000    

                  ET RATE =  5.000000E-10

 USING ET EXTINCTION DEPTH FROM PREVIOUS STRESS PERIOD. CURRENT PERIOD IS:       2

 USING EXTINCTION WATER CONTENT FROM PREVIOUS STRESS PERIOD. CURRENT PERIOD IS:       2

 USING AIR ENTRY PRESSURE FROM PREVIOUS STRESS PERIOD. CURRENT PERIOD IS:       2

 USING ROOT PRESSURE HEAD FROM PREVIOUS STRESS PERIOD. CURRENT PERIOD IS:       2

 USING ROOT ACTIVITY FROM PREVIOUS STRESS PERIOD. CURRENT PERIOD IS:       2

 PROCESSING AG STRESS PERIOD DATA

 READING AG STRESS PERIOD DATA

 READING IRRIGATION WELL

 END PROCESSING AG STRESS PERIOD DATA OPTIONS
 
 SOLVING FOR HEAD 
                                                   Max.-Head-Change                         Max.-Flux-Residual
  Residual-Control   Outer-Iter.   Inner-Iter.     Column Row Layer    Maximum-Head-Change  Column Row Layer    Maximum-Flux-Residual          L2-NORM 
          0                 1           2             4   13     1       0.6100933588E-02       4   13    1         0.3498426805E+00      0.7241932974E+00
          0                 2           2             4   13     1      -0.5804846473E-03       4   13    1        -0.3422479299E-01      0.7535293570E-01
          0                 3           1             4   13     1       0.3888649458E-04       4   13    1         0.2357261132E-02      0.5142098727E-02

    ------------------------------------------------
       NWT REQUIRED            3 OUTER ITERATIONS 
       AND A TOTAL OF          5 INNER ITERATIONS.
    ------------------------------------------------

 NO OUTPUT CONTROL FOR STRESS PERIOD    2   TIME STEP    1
 
 SOLVING FOR HEAD 
                                                   Max.-Head-Change                         Max.-Flux-Residual
  Residual-Control   Outer-Iter.   Inner-Iter.     Column Row Layer    Maximum-Head-Change  Column Row Layer    Maximum-Flux-Residual          L2-NORM 
          0                 1           2             2   13     1       0.5599472638E-02       4   13    1         0.3174746066E+00      0.6799940781E+00
          0                 2           2             4   13     1      -0.5332679198E-03       4   13    1        -0.3142317215E-01      0.6665586093E-01
          0                 3           1             4   13     1       0.3579168577E-04       4   13    1         0.2168417893E-02      0.4540478896E-02

    ------------------------------------------------
       NWT REQUIRED            3 OUTER ITERATIONS 
       AND A TOTAL OF          5 INNER ITERATIONS.
    ------------------------------------------------

 NO OUTPUT CONTROL FOR STRESS PERIOD    2   TIME STEP    2
 
 SOLVING FOR HEAD 
                                                   Max.-Head-Change                         Max.-Flux-Residual
  Residual-Control   Outer-Iter.   Inner-Iter.     Column Row Layer    Maximum-Head-Change  Column Row Layer    Maximum-Flux-Residual          L2-NORM 
          0                 1           2             2   13     1       0.5185880828E-02       2   13    1         0.2917483498E+00      0.6422041192E+00
          0                 2           2             4   13     1      -0.4838728776E-03       4   13    1        -0.2849600181E-01      0.6300639574E-01
          0                 3           1             4   13     1       0.3246909278E-04       4   13    1         0.1965964619E-02      0.4297127900E-02

    ------------------------------------------------
       NWT REQUIRED            3 OUTER ITERATIONS 
       AND A TOTAL OF          5 INNER ITERATIONS.
    ------------------------------------------------

 NO OUTPUT CONTROL FOR STRESS PERIOD    2   TIME STEP    3
 
 SOLVING FOR HEAD 
                                                   Max.-Head-Change                         Max.-Flux-Residual
  Residual-Control   Outer-Iter.   Inner-Iter.     Column Row Layer    Maximum-Head-Change  Column Row Layer    Maximum-Flux-Residual          L2-NORM 
          0                 1           2             2   13     1       0.4803149872E-02       2   13    1         0.2701870936E+00      0.6081803934E+00
          0                 2           2             2   13     1      -0.4473286772E-03       2   13    1        -0.2586640444E-01      0.5972360667E-01
          0                 3           1             4   13     1       0.2946394646E-04       4   13    1         0.1782900270E-02      0.4078823521E-02

    ------------------------------------------------
       NWT REQUIRED            3 OUTER ITERATIONS 
       AND A TOTAL OF          5 INNER ITERATIONS.
    ------------------------------------------------

 NO OUTPUT CONTROL FOR STRESS PERIOD    2   TIME STEP    4
 
 SOLVING FOR HEAD 
                                                   Max.-Head-Change                         Max.-Flux-Residual
  Residual-Control   Outer-Iter.   Inner-Iter.     Column Row Layer    Maximum-Head-Change  Column Row Layer    Maximum-Flux-Residual          L2-NORM 
          0                 1           2             2   13     1       0.4449046293E-02       2   13    1         0.2502398803E+00      0.5775478023E+00
          0                 2           2             2   13     1      -0.4144849651E-03       2   13    1        -0.2396443555E-01      0.5676812556E-01
          0                 3           1             4   13     1       0.2676329284E-04       4   13    1         0.1618472937E-02      0.3881411289E-02

    ------------------------------------------------
       NWT REQUIRED            3 OUTER ITERATIONS 
       AND A TOTAL OF          5 INNER ITERATIONS.
    ------------------------------------------------

 NO OUTPUT CONTROL FOR STRESS PERIOD    2   TIME STEP    5
 
 SOLVING FOR HEAD 
                                                   Max.-Head-Change                         Max.-Flux-Residual
  Residual-Control   Outer-Iter.   Inner-Iter.     Column Row Layer    Maximum-Head-Change  Column Row Layer    Maximum-Flux-Residual          L2-NORM 
          0                 1           2             2   13     1       0.4121422067E-02       2   13    1         0.2317854689E+00      0.5499867740E+00
          0                 2           2             2   13     1      -0.3840912296E-03       2   13    1        -0.2220444906E-01      0.5411228144E-01
          0                 3           1             2    2     1       0.2466198565E-04       4   13    1         0.1471128990E-02      0.3705975941E-02

    ------------------------------------------------
       NWT REQUIRED            3 OUTER ITERATIONS 
       AND A TOTAL OF          5 INNER ITERATIONS.
    ------------------------------------------------

 NO OUTPUT CONTROL FOR STRESS PERIOD    2   TIME STEP    6
 
 SOLVING FOR HEAD 
                                                   Max.-Head-Change                         Max.-Flux-Residual
  Residual-Control   Outer-Iter.   Inner-Iter.     Column Row Layer    Maximum-Head-Change  Column Row Layer    Maximum-Flux-Residual          L2-NORM 
          0                 1           2             2   13     1       0.3818215628E-02       2   13    1         0.2147075361E+00      0.5251891292E+00
          0                 2           2             2    2     1      -0.3594199378E-03       2   13    1        -0.2057549705E-01      0.5172366194E-01
          0                 3           1             2    2     1       0.2447515955E-04       2   13    1         0.1355381101E-02      0.3546983824E-02

    ------------------------------------------------
       NWT REQUIRED            3 OUTER ITERATIONS 
       AND A TOTAL OF          5 INNER ITERATIONS.
    ------------------------------------------------

 NO OUTPUT CONTROL FOR STRESS PERIOD    2   TIME STEP    7
 
 SOLVING FOR HEAD 
                                                   Max.-Head-Change                         Max.-Flux-Residual
  Residual-Control   Outer-Iter.   Inner-Iter.     Column Row Layer    Maximum-Head-Change  Column Row Layer    Maximum-Flux-Residual          L2-NORM 
          0                 1           2             2    2     1       0.3667086253E-02       2   13    1         0.1989106778E+00      0.5028816091E+00
          0                 2           2             2    2     1      -0.3567080803E-03       2    2    1        -0.1917041245E-01      0.4957450291E-01
          0                 3           1             2    2     1       0.2429049216E-04       2    2    1         0.1341929086E-02      0.3403336289E-02

    ------------------------------------------------
       NWT REQUIRED            3 OUTER ITERATIONS 
       AND A TOTAL OF          5 INNER ITERATIONS.
    ------------------------------------------------

 NO OUTPUT CONTROL FOR STRESS PERIOD    2   TIME STEP    8
 
 SOLVING FOR HEAD 
                                                   Max.-Head-Change                         Max.-Flux-Residual
  Residual-Control   Outer-Iter.   Inner-Iter.     Column Row Layer    Maximum-Head-Change  Column Row Layer    Maximum-Flux-Residual          L2-NORM 
          0                 1           2             2    2     1       0.3639701471E-02       2    2    1         0.1902628019E+00      0.4828026493E+00
          0                 2           2             2    2     1      -0.3540442758E-03       2    2    1        -0.1902631824E-01      0.4764171847E-01
          0                 3           1             2    2     1       0.2410909724E-04       2    2    1         0.1331842492E-02      0.3275898930E-02

    ------------------------------------------------
       NWT REQUIRED            3 OUTER ITERATIONS 
       AND A TOTAL OF          5 INNER ITERATIONS.
    ------------------------------------------------

 NO OUTPUT CONTROL FOR STRESS PERIOD    2   TIME STEP    9
 
 SOLVING FOR HEAD 
                                                   Max.-Head-Change                         Max.-Flux-Residual
  Residual-Control   Outer-Iter.   Inner-Iter.     Column Row Layer    Maximum-Head-Change  Column Row Layer    Maximum-Flux-Residual          L2-NORM 
          0                 1           2             2    2     1       0.3612629558E-02       2    2    1         0.1888383788E+00      0.4647324790E+00
          0                 2           2             2    2     1      -0.3514109046E-03       2    2    1        -0.1888387514E-01      0.4590420493E-01
          0                 3           1             2    2     1       0.2392977393E-04       2    2    1         0.1321871460E-02      0.3160856889E-02

    ------------------------------------------------
       NWT REQUIRED            3 OUTER ITERATIONS 
       AND A TOTAL OF          5 INNER ITERATIONS.
    ------------------------------------------------

 NO OUTPUT CONTROL FOR STRESS PERIOD    2   TIME STEP   10
 
 SOLVING FOR HEAD 
                                                   Max.-Head-Change                         Max.-Flux-Residual
  Residual-Control   Outer-Iter.   Inner-Iter.     Column Row Layer    Maximum-Head-Change  Column Row Layer    Maximum-Flux-Residual          L2-NORM 
          0                 1           2             2    2     1       0.3585951668E-02       2    2    1         0.1874347287E+00      0.4484532590E+00
          0                 2           2             2    2     1      -0.3488158623E-03       2    2    1        -0.1874350939E-01      0.4433592036E-01
          0                 3           1             2    2     1       0.2375306183E-04       2    2    1         0.1312045876E-02      0.3055638514E-02

    ------------------------------------------------
       NWT REQUIRED            3 OUTER ITERATIONS 
       AND A TOTAL OF          5 INNER ITERATIONS.
    ------------------------------------------------

 NO OUTPUT CONTROL FOR STRESS PERIOD    2   TIME STEP   11
 
 SOLVING FOR HEAD 
                                                   Max.-Head-Change                         Max.-Flux-Residual
  Residual-Control   Outer-Iter.   Inner-Iter.     Column Row Layer    Maximum-Head-Change  Column Row Layer    Maximum-Flux-Residual          L2-NORM 
          0                 1           2             2    2     1       0.3559572015E-02       2    2    1         0.1860468397E+00      0.4337719652E+00
          0                 2           2             2    2     1      -0.3462498304E-03       2    2    1        -0.1860471974E-01      0.4292393359E-01
          0                 3           1             2    2     1       0.2357832430E-04       2    2    1         0.1302330602E-02      0.2962715475E-02

    ------------------------------------------------
       NWT REQUIRED            3 OUTER ITERATIONS 
       AND A TOTAL OF          5 INNER ITERATIONS.
    ------------------------------------------------

 NO OUTPUT CONTROL FOR STRESS PERIOD    2   TIME STEP   12
 
 SOLVING FOR HEAD 
                                                   Max.-Head-Change                         Max.-Flux-Residual
  Residual-Control   Outer-Iter.   Inner-Iter.     Column Row Layer    Maximum-Head-Change  Column Row Layer    Maximum-Flux-Residual          L2-NORM 
          0                 1           2             2    2     1       0.3533663965E-02       2    2    1         0.1846837513E+00      0.4205330924E+00
          0                 2           2             2    2     1      -0.3437296729E-03       2    2    1        -0.1846841020E-01      0.4164887527E-01
          0                 3           1             2    2     1       0.2340671132E-04       2    2    1         0.1292788948E-02      0.2877927275E-02

    ------------------------------------------------
       NWT REQUIRED            3 OUTER ITERATIONS 
       AND A TOTAL OF          5 INNER ITERATIONS.
    ------------------------------------------------

 NO OUTPUT CONTROL FOR STRESS PERIOD    2   TIME STEP   13
 
 SOLVING FOR HEAD 
                                                   Max.-Head-Change                         Max.-Flux-Residual
  Residual-Control   Outer-Iter.   Inner-Iter.     Column Row Layer    Maximum-Head-Change  Column Row Layer    Maximum-Flux-Residual          L2-NORM 
          0                 1           2             2    2     1       0.3508044137E-02       2    2    1         0.1833358946E+00      0.4085697477E+00
          0                 2           2             2    2     1      -0.3412375519E-03       2    2    1        -0.1833362384E-01      0.4049770210E-01
          0                 3           1             2    2     1       0.2323700759E-04       2    2    1         0.1283353913E-02      0.2801326680E-02

    ------------------------------------------------
       NWT REQUIRED            3 OUTER ITERATIONS 
       AND A TOTAL OF          5 INNER ITERATIONS.
    ------------------------------------------------

 NO OUTPUT CONTROL FOR STRESS PERIOD    2   TIME STEP   14
 
 SOLVING FOR HEAD 
                                                   Max.-Head-Change                         Max.-Flux-Residual
  Residual-Control   Outer-Iter.   Inner-Iter.     Column Row Layer    Maximum-Head-Change  Column Row Layer    Maximum-Flux-Residual          L2-NORM 
          0                 1           2             2    2     1       0.3482794150E-02       2    2    1         0.1820075335E+00      0.3977352668E+00
          0                 2           2             2    2     1      -0.3387814064E-03       2    2    1        -0.1820078705E-01      0.3945336747E-01
          0                 3           1             2    2     1       0.2306975296E-04       2    2    1         0.1274055338E-02      0.2731925337E-02

    ------------------------------------------------
       NWT REQUIRED            3 OUTER ITERATIONS 
       AND A TOTAL OF          5 INNER ITERATIONS.
    ------------------------------------------------

 NO OUTPUT CONTROL FOR STRESS PERIOD    2   TIME STEP   15
 
 SOLVING FOR HEAD 
                                                   Max.-Head-Change                         Max.-Flux-Residual
  Residual-Control   Outer-Iter.   Inner-Iter.     Column Row Layer    Maximum-Head-Change  Column Row Layer    Maximum-Flux-Residual          L2-NORM 
          0                 1           2             2    2     1       0.3457908342E-02       2    2    1         0.1806983483E+00      0.3879265949E+00
          0                 2           2             2    2     1      -0.3363606859E-03       2    2    1        -0.1806986788E-01      0.3850834439E-01
          0                 3           1             2    2     1       0.2290491074E-04       2    2    1         0.1264890986E-02      0.2669558507E-02

    ------------------------------------------------
       NWT REQUIRED            3 OUTER ITERATIONS 
       AND A TOTAL OF          5 INNER ITERATIONS.
    ------------------------------------------------

 NO OUTPUT CONTROL FOR STRESS PERIOD    2   TIME STEP   16
 
 SOLVING FOR HEAD 
                                                   Max.-Head-Change                         Max.-Flux-Residual
  Residual-Control   Outer-Iter.   Inner-Iter.     Column Row Layer    Maximum-Head-Change  Column Row Layer    Maximum-Flux-Residual          L2-NORM 
          0                 1           2             2    2     1       0.3433381133E-02       2    2    1         0.1794080454E+00      0.3790056042E+00
          0                 2           2             2    2     1      -0.3339748476E-03       2    2    1        -0.1794083694E-01      0.3764796038E-01
          0                 3           1             2    2     1       0.2274244447E-04       2    2    1         0.1255858824E-02      0.2612242871E-02

    ------------------------------------------------
       NWT REQUIRED            3 OUTER ITERATIONS 
       AND A TOTAL OF          5 INNER ITERATIONS.
    ------------------------------------------------

 NO OUTPUT CONTROL FOR STRESS PERIOD    2   TIME STEP   17
 
 SOLVING FOR HEAD 
                                                   Max.-Head-Change                         Max.-Flux-Residual
  Residual-Control   Outer-Iter.   Inner-Iter.     Column Row Layer    Maximum-Head-Change  Column Row Layer    Maximum-Flux-Residual          L2-NORM 
          0                 1           2             2    2     1       0.3409206291E-02       2    2    1         0.1781363355E+00      0.3708960378E+00
          0                 2           2             2    2     1      -0.3316232849E-03       2    2    1        -0.1781366531E-01      0.3686534410E-01
          0                 3           1             2    2     1       0.2258231158E-04       2    2    1         0.1246956807E-02      0.2559405676E-02

    ------------------------------------------------
       NWT REQUIRED            3 OUTER ITERATIONS 
       AND A TOTAL OF          5 INNER ITERATIONS.
    ------------------------------------------------

 NO OUTPUT CONTROL FOR STRESS PERIOD    2   TIME STEP   18
 
 SOLVING FOR HEAD 
                                                   Max.-Head-Change                         Max.-Flux-Residual
  Residual-Control   Outer-Iter.   Inner-Iter.     Column Row Layer    Maximum-Head-Change  Column Row Layer    Maximum-Flux-Residual          L2-NORM 
          0                 1           2             2    2     1       0.3385291323E-02       2    2    1         0.1768783432E+00      0.3634935410E+00
          0                 2           2             2    2     1      -0.3292970014E-03       2    2    1        -0.1768786548E-01      0.3615014025E-01
          0                 3           1             2    2     1       0.2242390000E-04       2    2    1         0.1238150812E-02      0.2512721609E-02

    ------------------------------------------------
       NWT REQUIRED            3 OUTER ITERATIONS 
       AND A TOTAL OF          5 INNER ITERATIONS.
    ------------------------------------------------

 NO OUTPUT CONTROL FOR STRESS PERIOD    2   TIME STEP   19
 
 SOLVING FOR HEAD 
                                                   Max.-Head-Change                         Max.-Flux-Residual
  Residual-Control   Outer-Iter.   Inner-Iter.     Column Row Layer    Maximum-Head-Change  Column Row Layer    Maximum-Flux-Residual          L2-NORM 
          0                 1           2             2    2     1       0.3361718351E-02       2    2    1         0.1756383772E+00      0.3567229331E+00
          0                 2           2             2    2     1      -0.3270039852E-03       2    2    1        -0.1756386827E-01      0.3549537647E-01
          0                 3           1             2    2     1       0.2226775481E-04       2    2    1         0.1229471030E-02      0.2468520744E-02

    ------------------------------------------------
       NWT REQUIRED            3 OUTER ITERATIONS 
       AND A TOTAL OF          5 INNER ITERATIONS.
    ------------------------------------------------

 NO OUTPUT CONTROL FOR STRESS PERIOD    2   TIME STEP   20
 
 SOLVING FOR HEAD 
                                                   Max.-Head-Change                         Max.-Flux-Residual
  Residual-Control   Outer-Iter.   Inner-Iter.     Column Row Layer    Maximum-Head-Change  Column Row Layer    Maximum-Flux-Residual          L2-NORM 
          0                 1           2             2    2     1       0.3338482213E-02       2    2    1         0.1744161433E+00      0.3505174866E+00
          0                 2           2             2    2     1      -0.3247437340E-03       2    2    1        -0.1744164432E-01      0.3489468709E-01
          0                 3           1             2    2     1       0.2211383979E-04       2    2    1         0.1220915344E-02      0.2428150674E-02

    ------------------------------------------------
       NWT REQUIRED            3 OUTER ITERATIONS 
       AND A TOTAL OF          5 INNER ITERATIONS.
    ------------------------------------------------

 NO OUTPUT CONTROL FOR STRESS PERIOD    2   TIME STEP   21
 
 SOLVING FOR HEAD 
                                                   Max.-Head-Change                         Max.-Flux-Residual
  Residual-Control   Outer-Iter.   Inner-Iter.     Column Row Layer    Maximum-Head-Change  Column Row Layer    Maximum-Flux-Residual          L2-NORM 
          0                 1           2             2    2     1       0.3315577025E-02       2    2    1         0.1732113740E+00      0.3448125255E+00
          0                 2           2             2    2     1      -0.3225156752E-03       2    2    1        -0.1732116682E-01      0.3434182309E-01
          0                 3           1             2    2     1       0.2196211755E-04       2    2    1         0.1212481933E-02      0.2391386334E-02

    ------------------------------------------------
       NWT REQUIRED            3 OUTER ITERATIONS 
       AND A TOTAL OF          5 INNER ITERATIONS.
    ------------------------------------------------

 NO OUTPUT CONTROL FOR STRESS PERIOD    2   TIME STEP   22
 
 SOLVING FOR HEAD 
                                                   Max.-Head-Change                         Max.-Flux-Residual
  Residual-Control   Outer-Iter.   Inner-Iter.     Column Row Layer    Maximum-Head-Change  Column Row Layer    Maximum-Flux-Residual          L2-NORM 
          0                 1           2             2    2     1       0.3292997775E-02       2    2    1         0.1720237641E+00      0.3395514433E+00
          0                 2           2             2    2     1      -0.3203193212E-03       2    2    1        -0.1720240527E-01      0.3383120606E-01
          0                 3           1             2    2     1       0.2181255377E-04       2    2    1         0.1204168607E-02      0.2356529152E-02

    ------------------------------------------------
       NWT REQUIRED            3 OUTER ITERATIONS 
       AND A TOTAL OF          5 INNER ITERATIONS.
    ------------------------------------------------

 NO OUTPUT CONTROL FOR STRESS PERIOD    2   TIME STEP   23
 
 SOLVING FOR HEAD 
                                                   Max.-Head-Change                         Max.-Flux-Residual
  Residual-Control   Outer-Iter.   Inner-Iter.     Column Row Layer    Maximum-Head-Change  Column Row Layer    Maximum-Flux-Residual          L2-NORM 
          0                 1           2             2    2     1       0.3270656940E-02       2    2    1         0.1708487351E+00      0.3346884534E+00
          0                 2           2             2    2     1      -0.3181461588E-03       2    2    1        -0.1708490182E-01      0.3335826513E-01
          0                 3           1             2    2     1       0.2166456978E-04       2    2    1         0.1195943378E-02      0.2324902673E-02

    ------------------------------------------------
       NWT REQUIRED            3 OUTER ITERATIONS 
       AND A TOTAL OF          5 INNER ITERATIONS.
    ------------------------------------------------

 NO OUTPUT CONTROL FOR STRESS PERIOD    2   TIME STEP   24
 
 SOLVING FOR HEAD 
                                                   Max.-Head-Change                         Max.-Flux-Residual
  Residual-Control   Outer-Iter.   Inner-Iter.     Column Row Layer    Maximum-Head-Change  Column Row Layer    Maximum-Flux-Residual          L2-NORM 
          0                 1           2             2    2     1       0.3248715189E-02       2    2    1         0.1696947049E+00      0.3301814814E+00
          0                 2           2             2    2     1      -0.3160118169E-03       2    2    1        -0.1696949827E-01      0.3291994852E-01
          0                 3           1             2    2     1       0.2151922920E-04       2    2    1         0.1187865136E-02      0.2295273901E-02

    ------------------------------------------------
       NWT REQUIRED            3 OUTER ITERATIONS 
       AND A TOTAL OF          5 INNER ITERATIONS.
    ------------------------------------------------

 NO OUTPUT CONTROL FOR STRESS PERIOD    2   TIME STEP   25
 
 SOLVING FOR HEAD 
                                                   Max.-Head-Change                         Max.-Flux-Residual
  Residual-Control   Outer-Iter.   Inner-Iter.     Column Row Layer    Maximum-Head-Change  Column Row Layer    Maximum-Flux-Residual          L2-NORM 
          0                 1           2             2    2     1       0.3226996659E-02       2    2    1         0.1685524951E+00      0.3259932157E+00
          0                 2           2             2    2     1      -0.3138991882E-03       2    2    1        -0.1685527677E-01      0.3251198406E-01
          0                 3           1             2    2     1       0.2137536712E-04       2    2    1         0.1179869630E-02      0.2267831282E-02

    ------------------------------------------------
       NWT REQUIRED            3 OUTER ITERATIONS 
       AND A TOTAL OF          5 INNER ITERATIONS.
    ------------------------------------------------

 NO OUTPUT CONTROL FOR STRESS PERIOD    2   TIME STEP   26
 
 SOLVING FOR HEAD 
                                                   Max.-Head-Change                         Max.-Flux-Residual
  Residual-Control   Outer-Iter.   Inner-Iter.     Column Row Layer    Maximum-Head-Change  Column Row Layer    Maximum-Flux-Residual          L2-NORM 
          0                 1           2             2    2     1       0.3205584892E-02       2    2    1         0.1674264121E+00      0.3220846588E+00
          0                 2           2             2    2     1      -0.3118163999E-03       2    2    1        -0.1674266798E-01      0.3213044134E-01
          0                 3           1             2    2     1       0.2123353711E-04       2    2    1         0.1171987018E-02      0.2242180134E-02

    ------------------------------------------------
       NWT REQUIRED            3 OUTER ITERATIONS 
       AND A TOTAL OF          5 INNER ITERATIONS.
    ------------------------------------------------

 NO OUTPUT CONTROL FOR STRESS PERIOD    2   TIME STEP   27
 
 SOLVING FOR HEAD 
                                                   Max.-Head-Change                         Max.-Flux-Residual
  Residual-Control   Outer-Iter.   Inner-Iter.     Column Row Layer    Maximum-Head-Change  Column Row Layer    Maximum-Flux-Residual          L2-NORM 
          0                 1           2             2    2     1       0.3184474483E-02       2    2    1         0.1663162344E+00      0.3184309175E+00
          0                 2           2             2    2     1      -0.3097629249E-03       2    2    1        -0.1663164970E-01      0.3177375534E-01
          0                 3           1             2    2     1       0.2109370296E-04       2    2    1         0.1164215724E-02      0.2217504410E-02

    ------------------------------------------------
       NWT REQUIRED            3 OUTER ITERATIONS 
       AND A TOTAL OF          5 INNER ITERATIONS.
    ------------------------------------------------

 NO OUTPUT CONTROL FOR STRESS PERIOD    2   TIME STEP   28
 
 SOLVING FOR HEAD 
                                                   Max.-Head-Change                         Max.-Flux-Residual
  Residual-Control   Outer-Iter.   Inner-Iter.     Column Row Layer    Maximum-Head-Change  Column Row Layer    Maximum-Flux-Residual          L2-NORM 
          0                 1           2             2    2     1       0.3163660992E-02       2    2    1         0.1652216818E+00      0.3150072269E+00
          0                 2           2             2    2     1      -0.3077383323E-03       2    2    1        -0.1652219395E-01      0.3143881609E-01
          0                 3           1             2    2     1       0.2095583581E-04       2    2    1         0.1156553823E-02      0.2195133435E-02

    ------------------------------------------------
       NWT REQUIRED            3 OUTER ITERATIONS 
       AND A TOTAL OF          5 INNER ITERATIONS.
    ------------------------------------------------

 NO OUTPUT CONTROL FOR STRESS PERIOD    2   TIME STEP   29
 
 SOLVING FOR HEAD 
                                                   Max.-Head-Change                         Max.-Flux-Residual
  Residual-Control   Outer-Iter.   Inner-Iter.     Column Row Layer    Maximum-Head-Change  Column Row Layer    Maximum-Flux-Residual          L2-NORM 
          0                 1           2             2    2     1       0.3143052883E-02       2    2    1         0.1641379707E+00      0.3117827920E+00
          0                 2           2             2    2     1      -0.3057337187E-03       2    2    1        -0.1641382238E-01      0.3112272304E-01
          0                 3           1             2    2     1       0.2081932953E-04       2    2    1         0.1148967840E-02      0.2173740422E-02

    ------------------------------------------------
       NWT REQUIRED            3 OUTER ITERATIONS 
       AND A TOTAL OF          5 INNER ITERATIONS.
    ------------------------------------------------

 NO OUTPUT CONTROL FOR STRESS PERIOD    2   TIME STEP   30



 STREAM LISTING     PERIOD      2   STEP       30

 LAYER ROW COL. STREAM  RCH.  FLOW INTO     FLOW TO   FLOW OUT OF   OVRLND.     DIRECT     STREAM       STREAM     STREAM     STREAM   STREAMBED  STREAMBED
                SEG.NO.  NO.  STRM. RCH.    AQUIFER    STRM. RCH.    RUNOFF     PRECIP       ET          HEAD       DEPTH      WIDTH   CONDCTNC.   GRADIENT

   1    1    1     1     1    2.2000E+01  2.3088E-01   2.1769E+01  0.000E+00  0.000E+00  0.000E+00  1.09418E+03  1.132E+00  1.242E+01  5.588E-02  1.377E+00
   1    2    2     1     2    2.1769E+01  3.5689E-01   2.1412E+01  0.000E+00  0.000E+00  0.000E+00  1.08919E+03  1.127E+00  1.235E+01  8.648E-02  1.376E+00
   1    3    3     1     3    2.1412E+01  3.0372E-01   2.1109E+01  0.000E+00  0.000E+00  0.000E+00  1.08354E+03  1.121E+00  1.228E+01  7.369E-02  1.374E+00
   1    3    4     1     4    2.1109E+01  2.7914E-01   2.0829E+01  0.000E+00  0.000E+00  0.000E+00  1.07852E+03  1.117E+00  1.222E+01  6.781E-02  1.372E+00
   1    4    5     2     1    1.8829E+01  3.1306E-01   1.8516E+01  0.000E+00  0.000E+00  0.000E+00  1.07295E+03  1.014E+00  1.200E+01  7.800E-02  1.338E+00
   1    5    6     2     2    1.8516E+01  2.4027E-01   1.8276E+01  0.000E+00  0.000E+00  0.000E+00  1.06751E+03  1.005E+00  1.200E+01  6.000E-02  1.335E+00
   1    6    6     2     3    1.8276E+01  2.3980E-01   1.8036E+01  0.000E+00  0.000E+00  0.000E+00  1.06279E+03  9.967E-01  1.200E+01  6.000E-02  1.332E+00
   1    7    6     2     4    1.8036E+01  2.3933E-01   1.7797E+01  0.000E+00  0.000E+00  0.000E+00  1.05806E+03  9.888E-01  1.200E+01  6.000E-02  1.330E+00
   1    8    6     2     5    1.7797E+01  2.3885E-01   1.7558E+01  0.000E+00  0.000E+00  0.000E+00  1.05334E+03  9.808E-01  1.200E+01  6.000E-02  1.327E+00
   1    3    5     3     1    2.0000E+00  2.8252E-01   1.7175E+00  0.000E+00  0.000E+00  0.000E+00  1.07555E+03  1.909E+00  9.636E+00  7.227E-02  1.955E+00
   1    3    6     3     2    1.7175E+00  2.4905E-01   1.4684E+00  0.000E+00  0.000E+00  0.000E+00  1.07264E+03  1.727E+00  8.909E+00  6.682E-02  1.864E+00
   1    3    7     3     3    1.4684E+00  1.9718E-01   1.2712E+00  0.000E+00  0.000E+00  0.000E+00  1.06987E+03  1.555E+00  8.218E+00  5.547E-02  1.777E+00
   1    4    8     3     4    1.2712E+00  2.2567E-01   1.0456E+00  0.000E+00  0.000E+00  0.000E+00  1.06682E+03  1.364E+00  7.455E+00  6.709E-02  1.682E+00
   1    5    8     3     5    1.0456E+00  1.5790E-01   8.8768E-01  0.000E+00  0.000E+00  0.000E+00  1.06362E+03  1.164E+00  6.655E+00  4.991E-02  1.582E+00
   1    6    8     3     6    8.8768E-01  5.5980E-02   8.3170E-01  0.000E+00  0.000E+00  0.000E+00  1.06158E+03  1.036E+00  6.145E+00  1.844E-02  1.518E+00
   1    5   10     4     1    1.0000E+01  9.0919E-02   9.9091E+00  0.000E+00  0.000E+00  0.000E+00  1.07836E+03  6.368E-01  1.000E+01  2.500E-02  1.212E+00
   1    5    9     4     2    9.9091E+00  1.8158E-01   9.7275E+00  0.000E+00  0.000E+00  0.000E+00  1.07154E+03  6.315E-01  1.000E+01  5.000E-02  1.211E+00
   1    6    8     4     3    9.7275E+00  1.2689E-01   9.6006E+00  0.000E+00  0.000E+00  0.000E+00  1.06381E+03  6.256E-01  1.000E+01  3.500E-02  1.209E+00
   1    6    8     5     1    1.0432E+01  2.2686E-01   1.0205E+01  0.000E+00  0.000E+00  0.000E+00  1.05868E+03  6.790E-01  1.542E+01  6.166E-02  1.226E+00
   1    7    7     5     2    1.0205E+01  2.7894E-01   9.9265E+00  0.000E+00  0.000E+00  0.000E+00  1.05417E+03  6.732E-01  1.519E+01  7.594E-02  1.224E+00
   1    8    7     5     3    9.9265E+00  1.9221E-01   9.7343E+00  0.000E+00  0.000E+00  0.000E+00  1.04992E+03  6.676E-01  1.497E+01  5.241E-02  1.223E+00
   1    8    6     5     4    9.7343E+00  1.3577E-01   9.5985E+00  0.000E+00  0.000E+00  0.000E+00  1.04691E+03  6.637E-01  1.482E+01  3.706E-02  1.221E+00
   1    9    6     6     1    2.7157E+01  2.5677E-01   2.6900E+01  0.000E+00  0.000E+00  0.000E+00  1.04401E+03  1.280E+00  1.200E+01  6.000E-02  1.427E+00
   1   10    7     6     2    2.6900E+01  2.5634E-01   2.6644E+01  0.000E+00  0.000E+00  0.000E+00  1.03945E+03  1.272E+00  1.200E+01  6.000E-02  1.424E+00
   1   11    7     6     3    2.6644E+01  2.5590E-01   2.6388E+01  0.000E+00  0.000E+00  0.000E+00  1.03490E+03  1.265E+00  1.200E+01  6.000E-02  1.422E+00
   1   12    7     6     4    2.6388E+01  2.5546E-01   2.6132E+01  0.000E+00  0.000E+00  0.000E+00  1.03035E+03  1.258E+00  1.200E+01  6.000E-02  1.419E+00
   1   13    7     6     5    2.6132E+01  1.0939E-03   2.6131E+01  0.000E+00  0.000E+00  0.000E+00  1.02716E+03  1.254E+00  1.200E+01  2.400E-02  1.519E-02
   1   14    9     7     1    1.5000E+02  1.3306E+00   1.4867E+02  0.000E+00  0.000E+00  0.000E+00  1.03987E+03  2.288E+00  5.529E+01  5.593E-01  7.930E-01
   1   13    8     7     2    1.4867E+02  1.8228E+00   1.4685E+02  0.000E+00  0.000E+00  0.000E+00  1.03478E+03  2.279E+00  5.526E+01  6.148E-01  9.883E-01
   1   13    7     7     3    1.4685E+02  1.4367E+00   1.4541E+02  0.000E+00  0.000E+00  0.000E+00  1.02969E+03  2.271E+00  5.522E+01  5.585E-01  8.575E-01
   1   13    6     8     1    1.7154E+02  8.8336E-01   1.7066E+02  0.000E+00  0.000E+00  0.000E+00  1.02483E+03  2.959E+00  4.291E+01  4.373E-01  6.734E-01
   1   13    5     8     2    1.7066E+02  1.2909E-01   1.7053E+02  0.000E+00  0.000E+00  0.000E+00  1.01858E+03  2.956E+00  4.286E+01  4.368E-01  9.852E-02
   1   13    4     8     3    1.7053E+02 -2.6157E+00   1.7314E+02  0.000E+00  0.000E+00  0.000E+00  1.01234E+03  2.964E+00  4.298E+01  4.380E+00 -1.991E-01
   1   13    3     8     4    1.7314E+02 -3.7119E+00   1.7686E+02  0.000E+00  0.000E+00  0.000E+00  1.00611E+03  2.984E+00  4.327E+01  4.410E+00 -2.806E-01
   1   13    2     8     5    1.7686E+02 -2.5514E+00   1.7941E+02  0.000E+00  0.000E+00  0.000E+00  9.99879E+02  3.004E+00  4.356E+01  4.439E+00 -1.916E-01
   1   13    1     8     6    1.7941E+02 -1.9322E+00   1.8134E+02  0.000E+00  0.000E+00  0.000E+00  9.94893E+02  3.019E+00  4.377E+01  2.676E+00 -2.407E-01





UNSATURATED ZONE PACKAGE VOLUMETRIC BUDGET FOR  TIME STEP    30 STRESS PERIOD    2
  ------------------------------------------------------------------------------



     CUMULATIVE VOLUMES      L**3       RATES FOR THIS TIME STEP      L**3/T
     ------------------                 ------------------------

           IN:                                      IN:
           ---                                      ---
        INFILTRATION =    11664948.5581          INFILTRATION =           4.4075

          OUT:                                     OUT:
          ----                                     ----
              UZF ET =     1906749.7351                UZF ET =           0.7250
        UZF RECHARGE =       73224.0000          UZF RECHARGE =       0.0000E+00

            IN - OUT =     9684974.8230              IN - OUT =           3.6825

          STORAGE:                                 STORAGE:
          --------                                 --------
      STORAGE CHANGE =     9684974.7649        STORAGE CHANGE =           3.6825

 PERCENT DISCREPANCY IS DIFFERENCE BETWEEN IN-OUT MINUS CHANGE IN STORAGE
 DIVIDED BY THE AVERAGE OF IN AND OUT TIMES 100

 PERCENT DISCREPANCY =           0.00     PERCENT DISCREPANCY =           0.00






1
  VOLUMETRIC BUDGET FOR ENTIRE MODEL AT END OF TIME STEP   30, STRESS PERIOD   2
  ------------------------------------------------------------------------------

     CUMULATIVE VOLUMES      L**3       RATES FOR THIS TIME STEP      L**3/T
     ------------------                 ------------------------

           IN:                                      IN:
           ---                                      ---
               AG WELLS  =           0.0000                 AG WELLS  =           0.0000
      DIVERSION SEGMENTS =           0.0000        DIVERSION SEGMENTS =           0.0000
           GW IRRIGATION =           0.0000             GW IRRIGATION =           0.0000
           SW IRRIGATION =           0.0000             SW IRRIGATION =           0.0000
        SYSTEM LOSSES GW =           0.0000          SYSTEM LOSSES GW =           0.0000
        SYSTEM LOSSES SW =           0.0000          SYSTEM LOSSES SW =           0.0000

                TOTAL IN =           0.0000                  TOTAL IN =           0.0000

          OUT:                                     OUT:
          ----                                     ----
               AG WELLS  =           0.0000                 AG WELLS  =           0.0000
      DIVERSION SEGMENTS =           0.0000        DIVERSION SEGMENTS =           0.0000
           GW IRRIGATION =           0.0000             GW IRRIGATION =           0.0000
           SW IRRIGATION =           0.0000             SW IRRIGATION =           0.0000
        SYSTEM LOSSES GW =           0.0000          SYSTEM LOSSES GW =           0.0000
        SYSTEM LOSSES SW =           0.0000          SYSTEM LOSSES SW =           0.0000

               TOTAL OUT =           0.0000                 TOTAL OUT =           0.0000

                IN - OUT =           0.0000                  IN - OUT =           0.0000

     PERCENT DISCREPANCY =           0.00         PERCENT DISCREPANCY =           0.00



1
  VOLUMETRIC BUDGET FOR ENTIRE MODEL AT END OF TIME STEP   30, STRESS PERIOD   2
  ------------------------------------------------------------------------------

     CUMULATIVE VOLUMES      L**3       RATES FOR THIS TIME STEP      L**3/T
     ------------------                 ------------------------

           IN:                                      IN:
           ---                                      ---
             STORAGE     =     1687679.8750               STORAGE     =           0.5792
       CONSTANT HEAD     =           0.0000         CONSTANT HEAD     =           0.0000
     HEAD DEP BOUNDS     =      775205.3125       HEAD DEP BOUNDS     =           0.2854
      STREAM LEAKAGE     =    31116964.0000        STREAM LEAKAGE     =          11.4714
        UZF RECHARGE     =       73223.9531          UZF RECHARGE     =           0.0000
               GW ET     =           0.0000                 GW ET     =           0.0000
     SURFACE LEAKAGE     =           0.0000       SURFACE LEAKAGE     =           0.0000
           AG WELLS      =           0.0000             AG WELLS      =           0.0000

                TOTAL IN =    33653072.0000                  TOTAL IN =          12.3360

          OUT:                                     OUT:
          ----                                     ----
             STORAGE     =     4220742.0000               STORAGE     =           1.2356
       CONSTANT HEAD     =           0.0000         CONSTANT HEAD     =           0.0000
     HEAD DEP BOUNDS     =      783850.8125       HEAD DEP BOUNDS     =           0.2894
      STREAM LEAKAGE     =    28649202.0000        STREAM LEAKAGE     =          10.8112
        UZF RECHARGE     =           0.0000          UZF RECHARGE     =           0.0000
               GW ET     =           0.0000                 GW ET     =           0.0000
     SURFACE LEAKAGE     =           0.0000       SURFACE LEAKAGE     =           0.0000
           AG WELLS      =           0.0000             AG WELLS      =           0.0000

               TOTAL OUT =    33653796.0000                 TOTAL OUT =          12.3362

                IN - OUT =        -724.0000                  IN - OUT =      -1.8311E-04

     PERCENT DISCREPANCY =          -0.00         PERCENT DISCREPANCY =          -0.00






         TIME SUMMARY AT END OF TIME STEP   30 IN STRESS PERIOD    2
                    SECONDS     MINUTES      HOURS       DAYS        YEARS
                    -----------------------------------------------------------
   TIME STEP LENGTH  87667.      1461.1      24.352      1.0147     2.77799E-03
 STRESS PERIOD TIME 2.63000E+06  43833.      730.56      30.440     8.33397E-02
         TOTAL TIME 2.71640E+06  45273.      754.56      31.440     8.60775E-02
1
1
                            STRESS PERIOD NO.    3, LENGTH =   2630000.    
                            -----------------------------------------------

                              NUMBER OF TIME STEPS =    30

                               MULTIPLIER FOR DELT =     1.000

                            INITIAL TIME STEP SIZE =   87666.66    

 REUSING NON-PARAMETER GHB CELLS FROM LAST STRESS PERIOD

      2 GHB CELLS

 REUSING STREAM SEGMENT DATA FROM LAST STRESS PERIOD



            AREAL INFILTRATION RATE
 READING ON UNIT   19 WITH FORMAT: (10F4.0)            

            1           2           3           4           5           6           7           8           9          10
 ........................................................................................................................
   1   1.2000E-09   0.000       0.000       0.000       0.000       0.000       0.000       0.000       0.000       0.000    
   2   2.1000E-09  2.0000E-09  8.0000E-10  8.5000E-09   0.000       0.000       0.000       0.000       0.000       0.000    
   3   5.0000E-10  1.1000E-09  8.8000E-09  5.5000E-09   0.000       0.000       0.000       0.000       0.000       0.000    
   4   8.5000E-09  1.1000E-09  1.1000E-09  1.1000E-09  2.0000E-09   0.000       0.000       0.000       0.000       0.000    
   5   8.5000E-09  1.1000E-09  1.1000E-09  1.1000E-09  1.1000E-09   0.000       0.000       0.000       0.000       0.000    
   6   8.5000E-09  5.2000E-09  2.1000E-09  1.1000E-09  1.5000E-09   0.000       0.000       0.000       0.000       0.000    
   7   8.5000E-09  5.2000E-09  2.1000E-09  1.2000E-09  2.0000E-09   0.000       0.000       0.000       0.000       0.000    
   8   5.0000E-10  5.2000E-09  2.1000E-09  1.2000E-09  5.0000E-09   0.000       0.000       0.000       0.000       0.000    
   9   5.0000E-10  5.2000E-09  2.1000E-09  1.2000E-09  5.0000E-09   0.000       0.000       0.000       0.000       0.000    
  10   5.0000E-10  5.2000E-09  2.1000E-09  1.2000E-09  5.8000E-09   0.000       0.000       0.000       0.000       0.000    
  11   1.0000E-10  1.1000E-09  1.1000E-09  1.2000E-09  5.0000E-09   0.000       0.000       0.000       0.000       0.000    
  12   1.1000E-09  1.1000E-09  1.1000E-09  1.1000E-09  2.0000E-09   0.000       0.000       0.000       0.000       0.000    
  13   1.1000E-09  2.2000E-09  2.2000E-09  2.1000E-09  1.0000E-09   0.000       0.000       0.000       0.000       0.000    
  14   2.0000E-10  5.5000E-09  5.5000E-09  5.2000E-09  1.0000E-09   0.000       0.000       0.000       0.000       0.000    
  15    0.000      8.8000E-09  8.8000E-09   0.000       0.000       0.000       0.000       0.000       0.000       0.000    

                  ET RATE =  5.000000E-10

 USING ET EXTINCTION DEPTH FROM PREVIOUS STRESS PERIOD. CURRENT PERIOD IS:       3

 USING EXTINCTION WATER CONTENT FROM PREVIOUS STRESS PERIOD. CURRENT PERIOD IS:       3

 USING AIR ENTRY PRESSURE FROM PREVIOUS STRESS PERIOD. CURRENT PERIOD IS:       3

 USING ROOT PRESSURE HEAD FROM PREVIOUS STRESS PERIOD. CURRENT PERIOD IS:       3

 USING ROOT ACTIVITY FROM PREVIOUS STRESS PERIOD. CURRENT PERIOD IS:       3

 PROCESSING AG STRESS PERIOD DATA

 READING AG STRESS PERIOD DATA

 READING IRRIGATION WELL

 END PROCESSING AG STRESS PERIOD DATA OPTIONS
 
 SOLVING FOR HEAD 
                                                   Max.-Head-Change                         Max.-Flux-Residual
  Residual-Control   Outer-Iter.   Inner-Iter.     Column Row Layer    Maximum-Head-Change  Column Row Layer    Maximum-Flux-Residual          L2-NORM 
          0                 1           2             2    2     1       0.4445665625E-02       2   13    1         0.2434077641E+00      0.6122455516E+00
          0                 2           2             2    2     1      -0.4324428304E-03       4   13    1        -0.2398176572E-01      0.6028152508E-01
          0                 3           1             2    2     1       0.2944774546E-04       4   13    1         0.1653052382E-02      0.4132068781E-02

    ------------------------------------------------
       NWT REQUIRED            3 OUTER ITERATIONS 
       AND A TOTAL OF          5 INNER ITERATIONS.
    ------------------------------------------------

 NO OUTPUT CONTROL FOR STRESS PERIOD    3   TIME STEP    1
 
 SOLVING FOR HEAD 
                                                   Max.-Head-Change                         Max.-Flux-Residual
  Residual-Control   Outer-Iter.   Inner-Iter.     Column Row Layer    Maximum-Head-Change  Column Row Layer    Maximum-Flux-Residual          L2-NORM 
          0                 1           2             2   13     1       0.7704231706E-02       4   13    1         0.4384291293E+00      0.9459695630E+00
          0                 2           2             4   13     1      -0.7354830950E-03       4   13    1        -0.4338124263E-01      0.9263001763E-01
          0                 3           1             4   13     1       0.4933806270E-04       4   13    1         0.2991963906E-02      0.6301771552E-02

    ------------------------------------------------
       NWT REQUIRED            3 OUTER ITERATIONS 
       AND A TOTAL OF          5 INNER ITERATIONS.
    ------------------------------------------------

 NO OUTPUT CONTROL FOR STRESS PERIOD    3   TIME STEP    2
 
 SOLVING FOR HEAD 
                                                   Max.-Head-Change                         Max.-Flux-Residual
  Residual-Control   Outer-Iter.   Inner-Iter.     Column Row Layer    Maximum-Head-Change  Column Row Layer    Maximum-Flux-Residual          L2-NORM 
          0                 1           2             2   13     1       0.7121138986E-02       2   13    1         0.4014748242E+00      0.8938693837E+00
          0                 2           2             4   13     1      -0.6668013415E-03       4   13    1        -0.3930257348E-01      0.8761637931E-01
          0                 3           1             4   13     1       0.4472661086E-04       4   13    1         0.2710409861E-02      0.5968344460E-02

    ------------------------------------------------
       NWT REQUIRED            3 OUTER ITERATIONS 
       AND A TOTAL OF          5 INNER ITERATIONS.
    ------------------------------------------------

 NO OUTPUT CONTROL FOR STRESS PERIOD    3   TIME STEP    3
 
 SOLVING FOR HEAD 
                                                   Max.-Head-Change                         Max.-Flux-Residual
  Residual-Control   Outer-Iter.   Inner-Iter.     Column Row Layer    Maximum-Head-Change  Column Row Layer    Maximum-Flux-Residual          L2-NORM 
          0                 1           2             2   13     1       0.6582769499E-02       2   13    1         0.3710761212E+00      0.8472026121E+00
          0                 2           2             2   13     1      -0.6119643673E-03       4   13    1        -0.3563223672E-01      0.8313006312E-01
          0                 3           1             4   13     1       0.4057126948E-04       4   13    1         0.2456764353E-02      0.5671445212E-02

    ------------------------------------------------
       NWT REQUIRED            3 OUTER ITERATIONS 
       AND A TOTAL OF          5 INNER ITERATIONS.
    ------------------------------------------------

 NO OUTPUT CONTROL FOR STRESS PERIOD    3   TIME STEP    4
 
 SOLVING FOR HEAD 
                                                   Max.-Head-Change                         Max.-Flux-Residual
  Residual-Control   Outer-Iter.   Inner-Iter.     Column Row Layer    Maximum-Head-Change  Column Row Layer    Maximum-Flux-Residual          L2-NORM 
          0                 1           2             2   13     1       0.6085656272E-02       2   13    1         0.3430086015E+00      0.8054120089E+00
          0                 2           2             2   13     1      -0.5659605990E-03       2   13    1        -0.3278996529E-01      0.7911474678E-01
          0                 3           1             4   13     1       0.3683525171E-04       4   13    1         0.2228812275E-02      0.5405696265E-02

    ------------------------------------------------
       NWT REQUIRED            3 OUTER ITERATIONS 
       AND A TOTAL OF          5 INNER ITERATIONS.
    ------------------------------------------------

 NO OUTPUT CONTROL FOR STRESS PERIOD    3   TIME STEP    5
 
 SOLVING FOR HEAD 
                                                   Max.-Head-Change                         Max.-Flux-Residual
  Residual-Control   Outer-Iter.   Inner-Iter.     Column Row Layer    Maximum-Head-Change  Column Row Layer    Maximum-Flux-Residual          L2-NORM 
          0                 1           2             2   13     1       0.5626654856E-02       2   13    1         0.3170945818E+00      0.7680236351E+00
          0                 2           2             2   13     1      -0.5234355978E-03       2   13    1        -0.3032188973E-01      0.7552415249E-01
          0                 3           1             2    2     1       0.3527220249E-04       4   13    1         0.2024546544E-02      0.5120042062E-02

    ------------------------------------------------
       NWT REQUIRED            3 OUTER ITERATIONS 
       AND A TOTAL OF          5 INNER ITERATIONS.
    ------------------------------------------------

 NO OUTPUT CONTROL FOR STRESS PERIOD    3   TIME STEP    6
 
 SOLVING FOR HEAD 
                                                   Max.-Head-Change                         Max.-Flux-Residual
  Residual-Control   Outer-Iter.   Inner-Iter.     Column Row Layer    Maximum-Head-Change  Column Row Layer    Maximum-Flux-Residual          L2-NORM 
          0                 1           2             2    2     1       0.5289564174E-02       2   13    1         0.2931871040E+00      0.7345836157E+00
          0                 2           2             2    2     1      -0.5145314648E-03       2   13    1        -0.2804532133E-01      0.7231669992E-01
          0                 3           1             2    2     1       0.3503767419E-04       2    2    1         0.1933947847E-02      0.4956536005E-02

    ------------------------------------------------
       NWT REQUIRED            3 OUTER ITERATIONS 
       AND A TOTAL OF          5 INNER ITERATIONS.
    ------------------------------------------------

 NO OUTPUT CONTROL FOR STRESS PERIOD    3   TIME STEP    7
 
 SOLVING FOR HEAD 
                                                   Max.-Head-Change                         Max.-Flux-Residual
  Residual-Control   Outer-Iter.   Inner-Iter.     Column Row Layer    Maximum-Head-Change  Column Row Layer    Maximum-Flux-Residual          L2-NORM 
          0                 1           2             2    2     1       0.5254573274E-02       2    2    1         0.2744371868E+00      0.7046629729E+00
          0                 2           2             2    2     1      -0.5111277838E-03       2    2    1        -0.2744379097E-01      0.6944669411E-01
          0                 3           1             2    2     1       0.3480589674E-04       2    2    1         0.1921065518E-02      0.4767081768E-02

    ------------------------------------------------
       NWT REQUIRED            3 OUTER ITERATIONS 
       AND A TOTAL OF          5 INNER ITERATIONS.
    ------------------------------------------------

 NO OUTPUT CONTROL FOR STRESS PERIOD    3   TIME STEP    8
 
 SOLVING FOR HEAD 
                                                   Max.-Head-Change                         Max.-Flux-Residual
  Residual-Control   Outer-Iter.   Inner-Iter.     Column Row Layer    Maximum-Head-Change  Column Row Layer    Maximum-Flux-Residual          L2-NORM 
          0                 1           2             2    2     1       0.5220077323E-02       2    2    1         0.2726229482E+00      0.6779071135E+00
          0                 2           2             2    2     1      -0.5077722486E-03       2    2    1        -0.2726236580E-01      0.6688226763E-01
          0                 3           1             2    2     1       0.3457739746E-04       2    2    1         0.1908365766E-02      0.4597320584E-02

    ------------------------------------------------
       NWT REQUIRED            3 OUTER ITERATIONS 
       AND A TOTAL OF          5 INNER ITERATIONS.
    ------------------------------------------------

 NO OUTPUT CONTROL FOR STRESS PERIOD    3   TIME STEP    9
 
 SOLVING FOR HEAD 
                                                   Max.-Head-Change                         Max.-Flux-Residual
  Residual-Control   Outer-Iter.   Inner-Iter.     Column Row Layer    Maximum-Head-Change  Column Row Layer    Maximum-Flux-Residual          L2-NORM 
          0                 1           2             2    2     1       0.5186068290E-02       2    2    1         0.2708343723E+00      0.6539789964E+00
          0                 2           2             2    2     1      -0.5044640773E-03       2    2    1        -0.2708350691E-01      0.6459072380E-01
          0                 3           1             2    2     1       0.3435212332E-04       2    2    1         0.1895845640E-02      0.4446468863E-02

    ------------------------------------------------
       NWT REQUIRED            3 OUTER ITERATIONS 
       AND A TOTAL OF          5 INNER ITERATIONS.
    ------------------------------------------------

 NO OUTPUT CONTROL FOR STRESS PERIOD    3   TIME STEP   10
 
 SOLVING FOR HEAD 
                                                   Max.-Head-Change                         Max.-Flux-Residual
  Residual-Control   Outer-Iter.   Inner-Iter.     Column Row Layer    Maximum-Head-Change  Column Row Layer    Maximum-Flux-Residual          L2-NORM 
          0                 1           2             2    2     1       0.5152539088E-02       2    2    1         0.2690710425E+00      0.6325588855E+00
          0                 2           2             2    2     1      -0.5012025806E-03       2    2    1        -0.2690717265E-01      0.6253781718E-01
          0                 3           1             2    2     1       0.3413002723E-04       2    2    1         0.1883502243E-02      0.4311014603E-02

    ------------------------------------------------
       NWT REQUIRED            3 OUTER ITERATIONS 
       AND A TOTAL OF          5 INNER ITERATIONS.
    ------------------------------------------------

 NO OUTPUT CONTROL FOR STRESS PERIOD    3   TIME STEP   11
 
 SOLVING FOR HEAD 
                                                   Max.-Head-Change                         Max.-Flux-Residual
  Residual-Control   Outer-Iter.   Inner-Iter.     Column Row Layer    Maximum-Head-Change  Column Row Layer    Maximum-Flux-Residual          L2-NORM 
          0                 1           2             2    2     1       0.5119394800E-02       2    2    1         0.2673280360E+00      0.6133709395E+00
          0                 2           2             2    2     1      -0.4979785268E-03       2    2    1        -0.2673287077E-01      0.6069958350E-01
          0                 3           1             2    2     1       0.3391048176E-04       2    2    1         0.1871301116E-02      0.4190142762E-02

    ------------------------------------------------
       NWT REQUIRED            3 OUTER ITERATIONS 
       AND A TOTAL OF          5 INNER ITERATIONS.
    ------------------------------------------------

 NO OUTPUT CONTROL FOR STRESS PERIOD    3   TIME STEP   12
 
 SOLVING FOR HEAD 
                                                   Max.-Head-Change                         Max.-Flux-Residual
  Residual-Control   Outer-Iter.   Inner-Iter.     Column Row Layer    Maximum-Head-Change  Column Row Layer    Maximum-Flux-Residual          L2-NORM 
          0                 1           2             2    2     1       0.5086715702E-02       2    2    1         0.2656095421E+00      0.5961687515E+00
          0                 2           2             2    2     1      -0.4947997234E-03       2    2    1        -0.2656102017E-01      0.5905071914E-01
          0                 3           1             2    2     1       0.3369401707E-04       2    2    1         0.1859271593E-02      0.4081185293E-02

    ------------------------------------------------
       NWT REQUIRED            3 OUTER ITERATIONS 
       AND A TOTAL OF          5 INNER ITERATIONS.
    ------------------------------------------------

 NO OUTPUT CONTROL FOR STRESS PERIOD    3   TIME STEP   13
 
 SOLVING FOR HEAD 
                                                   Max.-Head-Change                         Max.-Flux-Residual
  Residual-Control   Outer-Iter.   Inner-Iter.     Column Row Layer    Maximum-Head-Change  Column Row Layer    Maximum-Flux-Residual          L2-NORM 
          0                 1           2             2    2     1       0.5054494282E-02       2    2    1         0.2639151679E+00      0.5807224799E+00
          0                 2           2             2    2     1      -0.4916654401E-03       2    2    1        -0.2639158157E-01      0.5757181559E-01
          0                 3           1             2    2     1       0.3348058441E-04       2    2    1         0.1847410904E-02      0.3991515040E-02

    ------------------------------------------------
       NWT REQUIRED            3 OUTER ITERATIONS 
       AND A TOTAL OF          5 INNER ITERATIONS.
    ------------------------------------------------

 NO OUTPUT CONTROL FOR STRESS PERIOD    3   TIME STEP   14
 
 SOLVING FOR HEAD 
                                                   Max.-Head-Change                         Max.-Flux-Residual
  Residual-Control   Outer-Iter.   Inner-Iter.     Column Row Layer    Maximum-Head-Change  Column Row Layer    Maximum-Flux-Residual          L2-NORM 
          0                 1           2             2    2     1       0.5022723561E-02       2    2    1         0.2622445237E+00      0.5668317918E+00
          0                 2           2             2    2     1      -0.4885749979E-03       2    2    1        -0.2622451600E-01      0.5628048059E-01
          0                 3           1             2    2     1       0.3327013643E-04       2    2    1         0.1835716309E-02      0.3898719911E-02

    ------------------------------------------------
       NWT REQUIRED            3 OUTER ITERATIONS 
       AND A TOTAL OF          5 INNER ITERATIONS.
    ------------------------------------------------

 NO OUTPUT CONTROL FOR STRESS PERIOD    3   TIME STEP   15
 
 SOLVING FOR HEAD 
                                                   Max.-Head-Change                         Max.-Flux-Residual
  Residual-Control   Outer-Iter.   Inner-Iter.     Column Row Layer    Maximum-Head-Change  Column Row Layer    Maximum-Flux-Residual          L2-NORM 
          0                 1           2             2    2     1       0.4991309127E-02       2    2    1         0.2605926917E+00      0.5542886086E+00
          0                 2           2             2    2     1      -0.4855192130E-03       2    2    1        -0.2605933168E-01      0.5503626893E-01
          0                 3           1             2    2     1       0.3306204950E-04       2    2    1         0.1824153417E-02      0.3816400309E-02

    ------------------------------------------------
       NWT REQUIRED            3 OUTER ITERATIONS 
       AND A TOTAL OF          5 INNER ITERATIONS.
    ------------------------------------------------

 NO OUTPUT CONTROL FOR STRESS PERIOD    3   TIME STEP   16
 
 SOLVING FOR HEAD 
                                                   Max.-Head-Change                         Max.-Flux-Residual
  Residual-Control   Outer-Iter.   Inner-Iter.     Column Row Layer    Maximum-Head-Change  Column Row Layer    Maximum-Flux-Residual          L2-NORM 
          0                 1           2             2    2     1       0.4960331728E-02       2    2    1         0.2589638887E+00      0.5429527659E+00
          0                 2           2             2    2     1      -0.4825059399E-03       2    2    1        -0.2589645027E-01      0.5394863124E-01
          0                 3           1             2    2     1       0.3285685685E-04       2    2    1         0.1812751723E-02      0.3745429327E-02

    ------------------------------------------------
       NWT REQUIRED            3 OUTER ITERATIONS 
       AND A TOTAL OF          5 INNER ITERATIONS.
    ------------------------------------------------

 NO OUTPUT CONTROL FOR STRESS PERIOD    3   TIME STEP   17
 
 SOLVING FOR HEAD 
                                                   Max.-Head-Change                         Max.-Flux-Residual
  Residual-Control   Outer-Iter.   Inner-Iter.     Column Row Layer    Maximum-Head-Change  Column Row Layer    Maximum-Flux-Residual          L2-NORM 
          0                 1           2             2    2     1       0.4929772597E-02       2    2    1         0.2573571112E+00      0.5326915582E+00
          0                 2           2             2    2     1      -0.4795333541E-03       2    2    1        -0.2573577146E-01      0.5296134406E-01
          0                 3           1             2    2     1       0.3265443517E-04       2    2    1         0.1801504222E-02      0.3678992814E-02

    ------------------------------------------------
       NWT REQUIRED            3 OUTER ITERATIONS 
       AND A TOTAL OF          5 INNER ITERATIONS.
    ------------------------------------------------

 NO OUTPUT CONTROL FOR STRESS PERIOD    3   TIME STEP   18
 
 SOLVING FOR HEAD 
                                                   Max.-Head-Change                         Max.-Flux-Residual
  Residual-Control   Outer-Iter.   Inner-Iter.     Column Row Layer    Maximum-Head-Change  Column Row Layer    Maximum-Flux-Residual          L2-NORM 
          0                 1           2             2    2     1       0.4899649573E-02       2    2    1         0.2557732890E+00      0.5233862415E+00
          0                 2           2             2    2     1      -0.4766031890E-03       2    2    1        -0.2557738819E-01      0.5206599007E-01
          0                 3           1             2    2     1       0.3245490185E-04       2    2    1         0.1790417385E-02      0.3619381662E-02

    ------------------------------------------------
       NWT REQUIRED            3 OUTER ITERATIONS 
       AND A TOTAL OF          5 INNER ITERATIONS.
    ------------------------------------------------

 NO OUTPUT CONTROL FOR STRESS PERIOD    3   TIME STEP   19
 
 SOLVING FOR HEAD 
                                                   Max.-Head-Change                         Max.-Flux-Residual
  Residual-Control   Outer-Iter.   Inner-Iter.     Column Row Layer    Maximum-Head-Change  Column Row Layer    Maximum-Flux-Residual          L2-NORM 
          0                 1           2             2    2     1       0.4869944017E-02       2    2    1         0.2542114443E+00      0.5149246583E+00
          0                 2           2             2    2     1      -0.4737136332E-03       2    2    1        -0.2542120270E-01      0.5125130704E-01
          0                 3           1             2    2     1       0.3225813382E-04       2    2    1         0.1779484412E-02      0.3565479869E-02

    ------------------------------------------------
       NWT REQUIRED            3 OUTER ITERATIONS 
       AND A TOTAL OF          5 INNER ITERATIONS.
    ------------------------------------------------

 NO OUTPUT CONTROL FOR STRESS PERIOD    3   TIME STEP   20
 
 SOLVING FOR HEAD 
                                                   Max.-Head-Change                         Max.-Flux-Residual
  Residual-Control   Outer-Iter.   Inner-Iter.     Column Row Layer    Maximum-Head-Change  Column Row Layer    Maximum-Flux-Residual          L2-NORM 
          0                 1           2             2    2     1       0.4840561308E-02       2    2    1         0.2526666880E+00      0.5072018350E+00
          0                 2           2             2    2     1      -0.4708554814E-03       2    2    1        -0.2526672606E-01      0.5050649264E-01
          0                 3           1             2    2     1       0.3206350390E-04       2    2    1         0.1768671037E-02      0.3515897272E-02

    ------------------------------------------------
       NWT REQUIRED            3 OUTER ITERATIONS 
       AND A TOTAL OF          5 INNER ITERATIONS.
    ------------------------------------------------

 NO OUTPUT CONTROL FOR STRESS PERIOD    3   TIME STEP   21
 
 SOLVING FOR HEAD 
                                                   Max.-Head-Change                         Max.-Flux-Residual
  Residual-Control   Outer-Iter.   Inner-Iter.     Column Row Layer    Maximum-Head-Change  Column Row Layer    Maximum-Flux-Residual          L2-NORM 
          0                 1           2             2    2     1       0.4811583202E-02       2    2    1         0.2511432275E+00      0.5001333749E+00
          0                 2           2             2    2     1      -0.4680366871E-03       2    2    1        -0.2511437903E-01      0.4982432335E-01
          0                 3           1             2    2     1       0.3187155502E-04       2    2    1         0.1758006757E-02      0.3470842375E-02

    ------------------------------------------------
       NWT REQUIRED            3 OUTER ITERATIONS 
       AND A TOTAL OF          5 INNER ITERATIONS.
    ------------------------------------------------

 NO OUTPUT CONTROL FOR STRESS PERIOD    3   TIME STEP   22
 
 SOLVING FOR HEAD 
                                                   Max.-Head-Change                         Max.-Flux-Residual
  Residual-Control   Outer-Iter.   Inner-Iter.     Column Row Layer    Maximum-Head-Change  Column Row Layer    Maximum-Flux-Residual          L2-NORM 
          0                 1           2             2    2     1       0.4783003971E-02       2    2    1         0.2496407454E+00      0.4936551431E+00
          0                 2           2             2    2     1      -0.4652566927E-03       2    2    1        -0.2496412986E-01      0.4919741190E-01
          0                 3           1             2    2     1       0.3168224788E-04       2    2    1         0.1747489314E-02      0.3428695433E-02

    ------------------------------------------------
       NWT REQUIRED            3 OUTER ITERATIONS 
       AND A TOTAL OF          5 INNER ITERATIONS.
    ------------------------------------------------

 NO OUTPUT CONTROL FOR STRESS PERIOD    3   TIME STEP   23
 
 SOLVING FOR HEAD 
                                                   Max.-Head-Change                         Max.-Flux-Residual
  Residual-Control   Outer-Iter.   Inner-Iter.     Column Row Layer    Maximum-Head-Change  Column Row Layer    Maximum-Flux-Residual          L2-NORM 
          0                 1           2             2    2     1       0.4754729713E-02       2    2    1         0.2481543872E+00      0.4876887784E+00
          0                 2           2             2    2     1      -0.4625063646E-03       2    2    1        -0.2481549312E-01      0.4861976533E-01
          0                 3           1             2    2     1       0.3149496074E-04       2    2    1         0.1737084752E-02      0.3389732006E-02

    ------------------------------------------------
       NWT REQUIRED            3 OUTER ITERATIONS 
       AND A TOTAL OF          5 INNER ITERATIONS.
    ------------------------------------------------

 NO OUTPUT CONTROL FOR STRESS PERIOD    3   TIME STEP   24
 
 SOLVING FOR HEAD 
                                                   Max.-Head-Change                         Max.-Flux-Residual
  Residual-Control   Outer-Iter.   Inner-Iter.     Column Row Layer    Maximum-Head-Change  Column Row Layer    Maximum-Flux-Residual          L2-NORM 
          0                 1           2             2    2     1       0.4726929610E-02       2    2    1         0.2466929560E+00      0.4821860977E+00
          0                 2           2             2    2     1      -0.4598021588E-03       2    2    1        -0.2466934909E-01      0.4808599236E-01
          0                 3           1             2    2     1       0.3131081450E-04       2    2    1         0.1726854664E-02      0.3353865435E-02

    ------------------------------------------------
       NWT REQUIRED            3 OUTER ITERATIONS 
       AND A TOTAL OF          5 INNER ITERATIONS.
    ------------------------------------------------

 NO OUTPUT CONTROL FOR STRESS PERIOD    3   TIME STEP   25
 
 SOLVING FOR HEAD 
                                                   Max.-Head-Change                         Max.-Flux-Residual
  Residual-Control   Outer-Iter.   Inner-Iter.     Column Row Layer    Maximum-Head-Change  Column Row Layer    Maximum-Flux-Residual          L2-NORM 
          0                 1           2             2    2     1       0.4699422055E-02       2    2    1         0.2452469945E+00      0.4770815499E+00
          0                 2           2             2    2     1      -0.4571264102E-03       2    2    1        -0.2452475203E-01      0.4759026415E-01
          0                 3           1             2    2     1       0.3112860637E-04       2    2    1         0.1716732897E-02      0.3320455769E-02

    ------------------------------------------------
       NWT REQUIRED            3 OUTER ITERATIONS 
       AND A TOTAL OF          5 INNER ITERATIONS.
    ------------------------------------------------

 NO OUTPUT CONTROL FOR STRESS PERIOD    3   TIME STEP   26
 
 SOLVING FOR HEAD 
                                                   Max.-Head-Change                         Max.-Flux-Residual
  Residual-Control   Outer-Iter.   Inner-Iter.     Column Row Layer    Maximum-Head-Change  Column Row Layer    Maximum-Flux-Residual          L2-NORM 
          0                 1           2             2    2     1       0.4672289645E-02       2    2    1         0.2438207586E+00      0.4723440155E+00
          0                 2           2             2    2     1      -0.4544871534E-03       2    2    1        -0.2438212758E-01      0.4713134769E-01
          0                 3           1             2    2     1       0.3094888261E-04       2    2    1         0.1706749170E-02      0.3302351072E-02

    ------------------------------------------------
       NWT REQUIRED            3 OUTER ITERATIONS 
       AND A TOTAL OF          5 INNER ITERATIONS.
    ------------------------------------------------

 NO OUTPUT CONTROL FOR STRESS PERIOD    3   TIME STEP   27
 
 SOLVING FOR HEAD 
                                                   Max.-Head-Change                         Max.-Flux-Residual
  Residual-Control   Outer-Iter.   Inner-Iter.     Column Row Layer    Maximum-Head-Change  Column Row Layer    Maximum-Flux-Residual          L2-NORM 
          0                 1           2             2    2     1       0.4645526090E-02       2    2    1         0.2424139737E+00      0.4679311711E+00
          0                 2           2             2    2     1      -0.4518837769E-03       2    2    1        -0.2424144825E-01      0.4670036671E-01
          0                 3           1             2    2     1       0.3077160273E-04       2    2    1         0.1696901643E-02      0.3261803470E-02

    ------------------------------------------------
       NWT REQUIRED            3 OUTER ITERATIONS 
       AND A TOTAL OF          5 INNER ITERATIONS.
    ------------------------------------------------

 NO OUTPUT CONTROL FOR STRESS PERIOD    3   TIME STEP   28
 
 SOLVING FOR HEAD 
                                                   Max.-Head-Change                         Max.-Flux-Residual
  Residual-Control   Outer-Iter.   Inner-Iter.     Column Row Layer    Maximum-Head-Change  Column Row Layer    Maximum-Flux-Residual          L2-NORM 
          0                 1           2             2    2     1       0.4619039107E-02       2    2    1         0.2410217554E+00      0.4638031271E+00
          0                 2           2             2    2     1      -0.4493073030E-03       2    2    1        -0.2410222559E-01      0.4629682470E-01
          0                 3           1             2    2     1       0.3059615400E-04       2    2    1         0.1687156046E-02      0.3233116042E-02

    ------------------------------------------------
       NWT REQUIRED            3 OUTER ITERATIONS 
       AND A TOTAL OF          5 INNER ITERATIONS.
    ------------------------------------------------

 NO OUTPUT CONTROL FOR STRESS PERIOD    3   TIME STEP   29
 
 SOLVING FOR HEAD 
                                                   Max.-Head-Change                         Max.-Flux-Residual
  Residual-Control   Outer-Iter.   Inner-Iter.     Column Row Layer    Maximum-Head-Change  Column Row Layer    Maximum-Flux-Residual          L2-NORM 
          0                 1           2             4   13     1       0.1234231898E-01       4   13    1         0.7107716035E+00      0.1464014708E+01
          0                 2           2             4   13     1      -0.1187267289E-02       4   13    1        -0.7029895415E-01      0.1429600756E+00
          0                 3           1             4   13     1       0.7960471922E-04       4   13    1         0.4846092303E-02      0.9687879922E-02

    ------------------------------------------------
       NWT REQUIRED            3 OUTER ITERATIONS 
       AND A TOTAL OF          5 INNER ITERATIONS.
    ------------------------------------------------

 NO OUTPUT CONTROL FOR STRESS PERIOD    3   TIME STEP   30



 STREAM LISTING     PERIOD      3   STEP       30

 LAYER ROW COL. STREAM  RCH.  FLOW INTO     FLOW TO   FLOW OUT OF   OVRLND.     DIRECT     STREAM       STREAM     STREAM     STREAM   STREAMBED  STREAMBED
                SEG.NO.  NO.  STRM. RCH.    AQUIFER    STRM. RCH.    RUNOFF     PRECIP       ET          HEAD       DEPTH      WIDTH   CONDCTNC.   GRADIENT

   1    1    1     1     1    7.2502E+01  4.1419E-01   7.2087E+01  0.000E+00  0.000E+00  0.000E+00  1.09472E+03  1.670E+00  1.971E+01  8.868E-02  1.557E+00
   1    2    2     1     2    7.2087E+01  6.4160E-01   7.1446E+01  0.000E+00  0.000E+00  0.000E+00  1.08972E+03  1.665E+00  1.965E+01  1.375E-01  1.555E+00
   1    3    3     1     3    7.1446E+01  5.4733E-01   7.0899E+01  0.000E+00  0.000E+00  0.000E+00  1.08408E+03  1.658E+00  1.958E+01  1.175E-01  1.553E+00
   1    3    4     1     4    7.0899E+01  5.0414E-01   7.0394E+01  0.000E+00  0.000E+00  0.000E+00  1.07906E+03  1.652E+00  1.953E+01  1.084E-01  1.551E+00
   1    4    5     2     1    6.8394E+01  4.0598E-01   6.7988E+01  0.000E+00  0.000E+00  0.000E+00  1.07414E+03  2.205E+00  1.200E+01  7.800E-02  1.735E+00
   1    5    6     2     2    6.7988E+01  3.1187E-01   6.7677E+01  0.000E+00  0.000E+00  0.000E+00  1.06871E+03  2.198E+00  1.200E+01  6.000E-02  1.733E+00
   1    6    6     2     3    6.7677E+01  3.1151E-01   6.7365E+01  0.000E+00  0.000E+00  0.000E+00  1.06398E+03  2.192E+00  1.200E+01  6.000E-02  1.731E+00
   1    7    6     2     4    6.7365E+01  3.1115E-01   6.7054E+01  0.000E+00  0.000E+00  0.000E+00  1.05926E+03  2.186E+00  1.200E+01  6.000E-02  1.729E+00
   1    8    6     2     5    6.7054E+01  3.1078E-01   6.6743E+01  0.000E+00  0.000E+00  0.000E+00  1.05454E+03  2.180E+00  1.200E+01  6.000E-02  1.727E+00
   1    3    5     3     1    2.0000E+00  2.8252E-01   1.7175E+00  0.000E+00  0.000E+00  0.000E+00  1.07555E+03  1.909E+00  9.636E+00  7.227E-02  1.955E+00
   1    3    6     3     2    1.7175E+00  2.4905E-01   1.4684E+00  0.000E+00  0.000E+00  0.000E+00  1.07264E+03  1.727E+00  8.909E+00  6.682E-02  1.864E+00
   1    3    7     3     3    1.4684E+00  1.9718E-01   1.2712E+00  0.000E+00  0.000E+00  0.000E+00  1.06987E+03  1.555E+00  8.218E+00  5.547E-02  1.777E+00
   1    4    8     3     4    1.2712E+00  2.2567E-01   1.0456E+00  0.000E+00  0.000E+00  0.000E+00  1.06682E+03  1.364E+00  7.455E+00  6.709E-02  1.682E+00
   1    5    8     3     5    1.0456E+00  1.5790E-01   8.8768E-01  0.000E+00  0.000E+00  0.000E+00  1.06362E+03  1.164E+00  6.655E+00  4.991E-02  1.582E+00
   1    6    8     3     6    8.8768E-01  5.5980E-02   8.3170E-01  0.000E+00  0.000E+00  0.000E+00  1.06158E+03  1.036E+00  6.145E+00  1.844E-02  1.518E+00
   1    5   10     4     1    1.0000E+01  9.0919E-02   9.9091E+00  0.000E+00  0.000E+00  0.000E+00  1.07836E+03  6.368E-01  1.000E+01  2.500E-02  1.212E+00
   1    5    9     4     2    9.9091E+00  1.8158E-01   9.7275E+00  0.000E+00  0.000E+00  0.000E+00  1.07154E+03  6.315E-01  1.000E+01  5.000E-02  1.211E+00
   1    6    8     4     3    9.7275E+00  1.2689E-01   9.6006E+00  0.000E+00  0.000E+00  0.000E+00  1.06381E+03  6.256E-01  1.000E+01  3.500E-02  1.209E+00
   1    6    8     5     1    1.0432E+01  2.2686E-01   1.0205E+01  0.000E+00  0.000E+00  0.000E+00  1.05868E+03  6.790E-01  1.542E+01  6.166E-02  1.226E+00
   1    7    7     5     2    1.0205E+01  2.7894E-01   9.9265E+00  0.000E+00  0.000E+00  0.000E+00  1.05417E+03  6.732E-01  1.519E+01  7.594E-02  1.224E+00
   1    8    7     5     3    9.9265E+00  1.9221E-01   9.7343E+00  0.000E+00  0.000E+00  0.000E+00  1.04992E+03  6.676E-01  1.497E+01  5.241E-02  1.223E+00
   1    8    6     5     4    9.7343E+00  1.3577E-01   9.5985E+00  0.000E+00  0.000E+00  0.000E+00  1.04691E+03  6.637E-01  1.482E+01  3.706E-02  1.221E+00
   1    9    6     6     1    7.6342E+01  3.2296E-01   7.6019E+01  0.000E+00  0.000E+00  0.000E+00  1.04511E+03  2.383E+00  1.200E+01  6.000E-02  1.794E+00
   1   10    7     6     2    7.6019E+01  3.2260E-01   7.5696E+01  0.000E+00  0.000E+00  0.000E+00  1.04056E+03  2.377E+00  1.200E+01  6.000E-02  1.792E+00
   1   11    7     6     3    7.5696E+01  3.2224E-01   7.5374E+01  0.000E+00  0.000E+00  0.000E+00  1.03601E+03  2.371E+00  1.200E+01  6.000E-02  1.790E+00
   1   12    7     6     4    7.5374E+01  3.2187E-01   7.5052E+01  0.000E+00  0.000E+00  0.000E+00  1.03146E+03  2.365E+00  1.200E+01  6.000E-02  1.788E+00
   1   13    7     6     5    7.5052E+01  2.7035E-02   7.5025E+01  0.000E+00  0.000E+00  0.000E+00  1.02827E+03  2.361E+00  1.200E+01  2.400E-02  3.755E-01
   1   14    9     7     1    1.5000E+02  1.3312E+00   1.4867E+02  0.000E+00  0.000E+00  0.000E+00  1.03987E+03  2.288E+00  5.529E+01  5.593E-01  7.933E-01
   1   13    8     7     2    1.4867E+02  1.8193E+00   1.4685E+02  0.000E+00  0.000E+00  0.000E+00  1.03478E+03  2.279E+00  5.526E+01  6.148E-01  9.864E-01
   1   13    7     7     3    1.4685E+02  1.4219E+00   1.4543E+02  0.000E+00  0.000E+00  0.000E+00  1.02969E+03  2.271E+00  5.522E+01  5.585E-01  8.487E-01
   1   13    6     8     1    2.2045E+02  1.0869E+00   2.1937E+02  0.000E+00  0.000E+00  0.000E+00  1.02513E+03  3.251E+00  4.715E+01  4.804E-01  7.541E-01
   1   13    5     8     2    2.1937E+02  2.5867E-01   2.1911E+02  0.000E+00  0.000E+00  0.000E+00  1.01887E+03  3.248E+00  4.709E+01  4.799E-01  1.797E-01
   1   13    4     8     3    2.1911E+02 -1.9099E+00   2.2102E+02  0.000E+00  0.000E+00  0.000E+00  1.01263E+03  3.252E+00  4.716E+01  4.806E+00 -1.325E-01
   1   13    3     8     4    2.2102E+02 -3.1182E+00   2.2413E+02  0.000E+00  0.000E+00  0.000E+00  1.00639E+03  3.266E+00  4.736E+01  4.826E+00 -2.154E-01
   1   13    2     8     5    2.2413E+02 -1.9270E+00   2.2606E+02  0.000E+00  0.000E+00  0.000E+00  1.00015E+03  3.280E+00  4.756E+01  4.846E+00 -1.325E-01
   1   13    1     8     6    2.2606E+02 -1.5653E+00   2.2763E+02  0.000E+00  0.000E+00  0.000E+00  9.95164E+02  3.289E+00  4.770E+01  2.916E+00 -1.789E-01





UNSATURATED ZONE PACKAGE VOLUMETRIC BUDGET FOR  TIME STEP    30 STRESS PERIOD    3
  ------------------------------------------------------------------------------



     CUMULATIVE VOLUMES      L**3       RATES FOR THIS TIME STEP      L**3/T
     ------------------                 ------------------------

           IN:                                      IN:
           ---                                      ---
        INFILTRATION =    23256673.1162          INFILTRATION =           4.4075

          OUT:                                     OUT:
          ----                                     ----
              UZF ET =     3813499.6318                UZF ET =           0.7250
        UZF RECHARGE =       73224.0000          UZF RECHARGE =       0.0000E+00

            IN - OUT =    19369949.4844              IN - OUT =           3.6825

          STORAGE:                                 STORAGE:
          --------                                 --------
      STORAGE CHANGE =    19369949.3662        STORAGE CHANGE =           3.6825

 PERCENT DISCREPANCY IS DIFFERENCE BETWEEN IN-OUT MINUS CHANGE IN STORAGE
 DIVIDED BY THE AVERAGE OF IN AND OUT TIMES 100

 PERCENT DISCREPANCY =           0.00     PERCENT DISCREPANCY =           0.00






1
  VOLUMETRIC BUDGET FOR ENTIRE MODEL AT END OF TIME STEP   30, STRESS PERIOD   3
  ------------------------------------------------------------------------------

     CUMULATIVE VOLUMES      L**3       RATES FOR THIS TIME STEP      L**3/T
     ------------------                 ------------------------

           IN:                                      IN:
           ---                                      ---
               AG WELLS  =           0.0000                 AG WELLS  =           0.0000
      DIVERSION SEGMENTS =           0.0000        DIVERSION SEGMENTS =           0.0000
           GW IRRIGATION =           0.0000             GW IRRIGATION =           0.0000
           SW IRRIGATION =           0.0000             SW IRRIGATION =           0.0000
        SYSTEM LOSSES GW =           0.0000          SYSTEM LOSSES GW =           0.0000
        SYSTEM LOSSES SW =           0.0000          SYSTEM LOSSES SW =           0.0000

                TOTAL IN =           0.0000                  TOTAL IN =           0.0000

          OUT:                                     OUT:
          ----                                     ----
               AG WELLS  =           0.0000                 AG WELLS  =           0.0000
      DIVERSION SEGMENTS =           0.0000        DIVERSION SEGMENTS =           0.0000
           GW IRRIGATION =           0.0000             GW IRRIGATION =           0.0000
           SW IRRIGATION =           0.0000             SW IRRIGATION =           0.0000
        SYSTEM LOSSES GW =           0.0000          SYSTEM LOSSES GW =           0.0000
        SYSTEM LOSSES SW =           0.0000          SYSTEM LOSSES SW =           0.0000

               TOTAL OUT =           0.0000                 TOTAL OUT =           0.0000

                IN - OUT =           0.0000                  IN - OUT =           0.0000

     PERCENT DISCREPANCY =           0.00         PERCENT DISCREPANCY =           0.00



1
  VOLUMETRIC BUDGET FOR ENTIRE MODEL AT END OF TIME STEP   30, STRESS PERIOD   3
  ------------------------------------------------------------------------------

     CUMULATIVE VOLUMES      L**3       RATES FOR THIS TIME STEP      L**3/T
     ------------------                 ------------------------

           IN:                                      IN:
           ---                                      ---
             STORAGE     =     3047020.0000               STORAGE     =           0.4724
       CONSTANT HEAD     =           0.0000         CONSTANT HEAD     =           0.0000
     HEAD DEP BOUNDS     =     1525869.2500       HEAD DEP BOUNDS     =           0.2854
      STREAM LEAKAGE     =    63536340.0000        STREAM LEAKAGE     =          13.3947
        UZF RECHARGE     =       73223.9531          UZF RECHARGE     =           0.0000
               GW ET     =           0.0000                 GW ET     =           0.0000
     SURFACE LEAKAGE     =           0.0000       SURFACE LEAKAGE     =           0.0000
           AG WELLS      =           0.0000             AG WELLS      =           0.0000

                TOTAL IN =    68182456.0000                  TOTAL IN =          14.1525

          OUT:                                     OUT:
          ----                                     ----
             STORAGE     =    11250805.0000               STORAGE     =           5.3409
       CONSTANT HEAD     =           0.0000         CONSTANT HEAD     =           0.0000
     HEAD DEP BOUNDS     =     1549889.6250       HEAD DEP BOUNDS     =           0.2926
      STREAM LEAKAGE     =    55384084.0000        STREAM LEAKAGE     =           8.5203
        UZF RECHARGE     =           0.0000          UZF RECHARGE     =           0.0000
               GW ET     =       1.3918E-07                 GW ET     =           0.0000
     SURFACE LEAKAGE     =           0.0000       SURFACE LEAKAGE     =           0.0000
           AG WELLS      =           0.0000             AG WELLS      =           0.0000

               TOTAL OUT =    68184776.0000                 TOTAL OUT =          14.1539

                IN - OUT =       -2320.0000                  IN - OUT =      -1.3828E-03

     PERCENT DISCREPANCY =          -0.00         PERCENT DISCREPANCY =          -0.01






         TIME SUMMARY AT END OF TIME STEP   30 IN STRESS PERIOD    3
                    SECONDS     MINUTES      HOURS       DAYS        YEARS
                    -----------------------------------------------------------
   TIME STEP LENGTH  87667.      1461.1      24.352      1.0147     2.77799E-03
 STRESS PERIOD TIME 2.63000E+06  43833.      730.56      30.440     8.33397E-02
         TOTAL TIME 5.34640E+06  89107.      1485.1      61.880     0.16942    
1
1
                            STRESS PERIOD NO.    4, LENGTH =   2630000.    
                            -----------------------------------------------

                              NUMBER OF TIME STEPS =    30

                               MULTIPLIER FOR DELT =     1.000

                            INITIAL TIME STEP SIZE =   87666.66    

 REUSING NON-PARAMETER GHB CELLS FROM LAST STRESS PERIOD

      2 GHB CELLS

 REUSING STREAM SEGMENT DATA FROM LAST STRESS PERIOD



            AREAL INFILTRATION RATE
 READING ON UNIT   19 WITH FORMAT: (10F4.0)            

            1           2           3           4           5           6           7           8           9          10
 ........................................................................................................................
   1   1.2000E-09   0.000       0.000       0.000       0.000       0.000       0.000       0.000       0.000       0.000    
   2   2.1000E-09  2.0000E-09  8.0000E-10  8.5000E-09   0.000       0.000       0.000       0.000       0.000       0.000    
   3   5.0000E-10  1.1000E-09  8.8000E-09  5.5000E-09   0.000       0.000       0.000       0.000       0.000       0.000    
   4   8.5000E-09  1.1000E-09  1.1000E-09  1.1000E-09  2.0000E-09   0.000       0.000       0.000       0.000       0.000    
   5   8.5000E-09  1.1000E-09  1.1000E-09  1.1000E-09  1.1000E-09   0.000       0.000       0.000       0.000       0.000    
   6   8.5000E-09  5.2000E-09  2.1000E-09  1.1000E-09  1.5000E-09   0.000       0.000       0.000       0.000       0.000    
   7   8.5000E-09  5.2000E-09  2.1000E-09  1.2000E-09  2.0000E-09   0.000       0.000       0.000       0.000       0.000    
   8   5.0000E-10  5.2000E-09  2.1000E-09  1.2000E-09  5.0000E-09   0.000       0.000       0.000       0.000       0.000    
   9   5.0000E-10  5.2000E-09  2.1000E-09  1.2000E-09  5.0000E-09   0.000       0.000       0.000       0.000       0.000    
  10   5.0000E-10  5.2000E-09  2.1000E-09  1.2000E-09  5.8000E-09   0.000       0.000       0.000       0.000       0.000    
  11   1.0000E-10  1.1000E-09  1.1000E-09  1.2000E-09  5.0000E-09   0.000       0.000       0.000       0.000       0.000    
  12   1.1000E-09  1.1000E-09  1.1000E-09  1.1000E-09  2.0000E-09   0.000       0.000       0.000       0.000       0.000    
  13   1.1000E-09  2.2000E-09  2.2000E-09  2.1000E-09  1.0000E-09   0.000       0.000       0.000       0.000       0.000    
  14   2.0000E-10  5.5000E-09  5.5000E-09  5.2000E-09  1.0000E-09   0.000       0.000       0.000       0.000       0.000    
  15    0.000      8.8000E-09  8.8000E-09   0.000       0.000       0.000       0.000       0.000       0.000       0.000    

                  ET RATE =  5.000000E-10

 USING ET EXTINCTION DEPTH FROM PREVIOUS STRESS PERIOD. CURRENT PERIOD IS:       4

 USING EXTINCTION WATER CONTENT FROM PREVIOUS STRESS PERIOD. CURRENT PERIOD IS:       4

 USING AIR ENTRY PRESSURE FROM PREVIOUS STRESS PERIOD. CURRENT PERIOD IS:       4

 USING ROOT PRESSURE HEAD FROM PREVIOUS STRESS PERIOD. CURRENT PERIOD IS:       4

 USING ROOT ACTIVITY FROM PREVIOUS STRESS PERIOD. CURRENT PERIOD IS:       4

 PROCESSING AG STRESS PERIOD DATA

 READING AG STRESS PERIOD DATA

 READING IRRIGATION WELL

 END PROCESSING AG STRESS PERIOD DATA OPTIONS
 
 SOLVING FOR HEAD 
                                                   Max.-Head-Change                         Max.-Flux-Residual
  Residual-Control   Outer-Iter.   Inner-Iter.     Column Row Layer    Maximum-Head-Change  Column Row Layer    Maximum-Flux-Residual          L2-NORM 
          0                 1           2             2   13     1       0.1291436407E-01       4   13    1         0.7422244522E+00      0.1545177509E+01
          0                 2           2             4   13     1      -0.1239419314E-02       4   13    1        -0.7340111397E-01      0.1508431556E+00
          0                 3           1             4   13     1       0.8308799668E-04       4   13    1         0.5059113309E-02      0.1021721041E-01

    ------------------------------------------------
       NWT REQUIRED            3 OUTER ITERATIONS 
       AND A TOTAL OF          5 INNER ITERATIONS.
    ------------------------------------------------

 NO OUTPUT CONTROL FOR STRESS PERIOD    4   TIME STEP    1
 
 SOLVING FOR HEAD 
                                                   Max.-Head-Change                         Max.-Flux-Residual
  Residual-Control   Outer-Iter.   Inner-Iter.     Column Row Layer    Maximum-Head-Change  Column Row Layer    Maximum-Flux-Residual          L2-NORM 
          0                 1           2             2   13     1       0.1188989284E-01       2   13    1         0.6731578190E+00      0.1450966368E+01
          0                 2           2             4   13     1      -0.1119246842E-02       4   13    1        -0.6623524346E-01      0.1417980028E+00
          0                 3           1             4   13     1       0.7503906354E-04       4   13    1         0.4565612847E-02      0.9619704591E-02

    ------------------------------------------------
       NWT REQUIRED            3 OUTER ITERATIONS 
       AND A TOTAL OF          5 INNER ITERATIONS.
    ------------------------------------------------

 NO OUTPUT CONTROL FOR STRESS PERIOD    4   TIME STEP    2
 
 SOLVING FOR HEAD 
                                                   Max.-Head-Change                         Max.-Flux-Residual
  Residual-Control   Outer-Iter.   Inner-Iter.     Column Row Layer    Maximum-Head-Change  Column Row Layer    Maximum-Flux-Residual          L2-NORM 
          0                 1           2             2   13     1       0.1094758770E-01       2   13    1         0.6197288155E+00      0.1366846456E+01
          0                 2           2             2   13     1      -0.1014816515E-02       4   13    1        -0.5981217491E-01      0.1337275288E+00
          0                 3           1             4   13     1       0.6779002204E-04       4   13    1         0.4121304194E-02      0.9087425196E-02

    ------------------------------------------------
       NWT REQUIRED            3 OUTER ITERATIONS 
       AND A TOTAL OF          5 INNER ITERATIONS.
    ------------------------------------------------

 NO OUTPUT CONTROL FOR STRESS PERIOD    4   TIME STEP    3
 
 SOLVING FOR HEAD 
                                                   Max.-Head-Change                         Max.-Flux-Residual
  Residual-Control   Outer-Iter.   Inner-Iter.     Column Row Layer    Maximum-Head-Change  Column Row Layer    Maximum-Flux-Residual          L2-NORM 
          0                 1           2             2   13     1       0.1008089796E-01       2   13    1         0.5705896628E+00      0.1291797877E+01
          0                 2           2             2   13     1      -0.9348945195E-03       2   13    1        -0.5439276667E-01      0.1265332201E+00
          0                 3           1             4   13     1       0.6130788194E-04       4   13    1         0.3724150394E-02      0.8612336891E-02

    ------------------------------------------------
       NWT REQUIRED            3 OUTER ITERATIONS 
       AND A TOTAL OF          5 INNER ITERATIONS.
    ------------------------------------------------

 NO OUTPUT CONTROL FOR STRESS PERIOD    4   TIME STEP    4
 
 SOLVING FOR HEAD 
                                                   Max.-Head-Change                         Max.-Flux-Residual
  Residual-Control   Outer-Iter.   Inner-Iter.     Column Row Layer    Maximum-Head-Change  Column Row Layer    Maximum-Flux-Residual          L2-NORM 
          0                 1           2             2   13     1       0.9283800134E-02       2   13    1         0.5253984826E+00      0.1224918805E+01
          0                 2           2             2   13     1      -0.8613429983E-03       2   13    1        -0.5010600112E-01      0.1201315006E+00
          0                 3           1             4   13     1       0.5547894433E-04       4   13    1         0.3367167661E-02      0.8190394579E-02

    ------------------------------------------------
       NWT REQUIRED            3 OUTER ITERATIONS 
       AND A TOTAL OF          5 INNER ITERATIONS.
    ------------------------------------------------

 NO OUTPUT CONTROL FOR STRESS PERIOD    4   TIME STEP    5
 
 SOLVING FOR HEAD 
                                                   Max.-Head-Change                         Max.-Flux-Residual
  Residual-Control   Outer-Iter.   Inner-Iter.     Column Row Layer    Maximum-Head-Change  Column Row Layer    Maximum-Flux-Residual          L2-NORM 
          0                 1           2             2   13     1       0.8550677895E-02       2   13    1         0.4838367476E+00      0.1165347939E+01
          0                 2           2             2   13     1      -0.7936216897E-03       2   13    1        -0.4615931274E-01      0.1144307272E+00
          0                 3           1             2    2     1       0.5140191765E-04       4   13    1         0.3046200229E-02      0.7814748336E-02

    ------------------------------------------------
       NWT REQUIRED            3 OUTER ITERATIONS 
       AND A TOTAL OF          5 INNER ITERATIONS.
    ------------------------------------------------

 NO OUTPUT CONTROL FOR STRESS PERIOD    4   TIME STEP    6
 
 SOLVING FOR HEAD 
                                                   Max.-Head-Change                         Max.-Flux-Residual
  Residual-Control   Outer-Iter.   Inner-Iter.     Column Row Layer    Maximum-Head-Change  Column Row Layer    Maximum-Flux-Residual          L2-NORM 
          0                 1           2             2   13     1       0.7876422956E-02       2   13    1         0.4456146718E+00      0.1112329011E+01
          0                 2           2             2    2     1      -0.7501962391E-03       2   13    1        -0.4252615093E-01      0.1093615416E+00
          0                 3           1             2    2     1       0.5108556099E-04       2    2    1         0.2818321269E-02      0.7483074932E-02

    ------------------------------------------------
       NWT REQUIRED            3 OUTER ITERATIONS 
       AND A TOTAL OF          5 INNER ITERATIONS.
    ------------------------------------------------

 NO OUTPUT CONTROL FOR STRESS PERIOD    4   TIME STEP    7
 
 SOLVING FOR HEAD 
                                                   Max.-Head-Change                         Max.-Flux-Residual
  Residual-Control   Outer-Iter.   Inner-Iter.     Column Row Layer    Maximum-Head-Change  Column Row Layer    Maximum-Flux-Residual          L2-NORM 
          0                 1           2             2    2     1       0.7665180097E-02       2   13    1         0.4104622084E+00      0.1065159799E+01
          0                 2           2             2    2     1      -0.7456152104E-03       2    2    1        -0.4001410583E-01      0.1048541780E+00
          0                 3           1             2    2     1       0.5077361023E-04       2    2    1         0.2800987246E-02      0.7185612343E-02

    ------------------------------------------------
       NWT REQUIRED            3 OUTER ITERATIONS 
       AND A TOTAL OF          5 INNER ITERATIONS.
    ------------------------------------------------

 NO OUTPUT CONTROL FOR STRESS PERIOD    4   TIME STEP    8
 
 SOLVING FOR HEAD 
                                                   Max.-Head-Change                         Max.-Flux-Residual
  Residual-Control   Outer-Iter.   Inner-Iter.     Column Row Layer    Maximum-Head-Change  Column Row Layer    Maximum-Flux-Residual          L2-NORM 
          0                 1           2             2    2     1       0.7618653474E-02       2    2    1         0.3976932564E+00      0.1023211177E+01
          0                 2           2             2    2     1      -0.7410893999E-03       2    2    1        -0.3976946927E-01      0.1008488759E+00
          0                 3           1             2    2     1       0.5046541974E-04       2    2    1         0.2783862695E-02      0.6923903845E-02

    ------------------------------------------------
       NWT REQUIRED            3 OUTER ITERATIONS 
       AND A TOTAL OF          5 INNER ITERATIONS.
    ------------------------------------------------

 NO OUTPUT CONTROL FOR STRESS PERIOD    4   TIME STEP    9
 
 SOLVING FOR HEAD 
                                                   Max.-Head-Change                         Max.-Flux-Residual
  Residual-Control   Outer-Iter.   Inner-Iter.     Column Row Layer    Maximum-Head-Change  Column Row Layer    Maximum-Flux-Residual          L2-NORM 
          0                 1           2             2    2     1       0.7572771946E-02       2    2    1         0.3952809092E+00      0.9858868544E+00
          0                 2           2             2    2     1      -0.7366263410E-03       2    2    1        -0.3952823209E-01      0.9728538109E-01
          0                 3           1             2    2     1       0.5016150191E-04       2    2    1         0.2766976100E-02      0.6690236110E-02

    ------------------------------------------------
       NWT REQUIRED            3 OUTER ITERATIONS 
       AND A TOTAL OF          5 INNER ITERATIONS.
    ------------------------------------------------

 NO OUTPUT CONTROL FOR STRESS PERIOD    4   TIME STEP   10
 
 SOLVING FOR HEAD 
                                                   Max.-Head-Change                         Max.-Flux-Residual
  Residual-Control   Outer-Iter.   Inner-Iter.     Column Row Layer    Maximum-Head-Change  Column Row Layer    Maximum-Flux-Residual          L2-NORM 
          0                 1           2             2    2     1       0.7527438363E-02       2    2    1         0.3928974485E+00      0.9526858795E+00
          0                 2           2             2    2     1      -0.7322165832E-03       2    2    1        -0.3928988361E-01      0.9411732474E-01
          0                 3           1             2    2     1       0.4986121442E-04       2    2    1         0.2750291725E-02      0.6482025348E-02

    ------------------------------------------------
       NWT REQUIRED            3 OUTER ITERATIONS 
       AND A TOTAL OF          5 INNER ITERATIONS.
    ------------------------------------------------

 NO OUTPUT CONTROL FOR STRESS PERIOD    4   TIME STEP   11
 
 SOLVING FOR HEAD 
                                                   Max.-Head-Change                         Max.-Flux-Residual
  Residual-Control   Outer-Iter.   Inner-Iter.     Column Row Layer    Maximum-Head-Change  Column Row Layer    Maximum-Flux-Residual          L2-NORM 
          0                 1           2             2    2     1       0.7482730515E-02       2    2    1         0.3905469588E+00      0.9231268076E+00
          0                 2           2             2    2     1      -0.7278676929E-03       2    2    1        -0.3905483228E-01      0.9129473615E-01
          0                 3           1             2    2     1       0.4956507131E-04       2    2    1         0.2733838142E-02      0.6295853003E-02

    ------------------------------------------------
       NWT REQUIRED            3 OUTER ITERATIONS 
       AND A TOTAL OF          5 INNER ITERATIONS.
    ------------------------------------------------

 NO OUTPUT CONTROL FOR STRESS PERIOD    4   TIME STEP   12
 
 SOLVING FOR HEAD 
                                                   Max.-Head-Change                         Max.-Flux-Residual
  Residual-Control   Outer-Iter.   Inner-Iter.     Column Row Layer    Maximum-Head-Change  Column Row Layer    Maximum-Flux-Residual          L2-NORM 
          0                 1           2             2    2     1       0.7438639191E-02       2    2    1         0.3882289128E+00      0.8967800030E+00
          0                 2           2             2    2     1      -0.7235787743E-03       2    2    1        -0.3882302535E-01      0.8877932845E-01
          0                 3           1             2    2     1       0.4927301223E-04       2    2    1         0.2717611678E-02      0.6131293749E-02

    ------------------------------------------------
       NWT REQUIRED            3 OUTER ITERATIONS 
       AND A TOTAL OF          5 INNER ITERATIONS.
    ------------------------------------------------

 NO OUTPUT CONTROL FOR STRESS PERIOD    4   TIME STEP   13
 
 SOLVING FOR HEAD 
                                                   Max.-Head-Change                         Max.-Flux-Residual
  Residual-Control   Outer-Iter.   Inner-Iter.     Column Row Layer    Maximum-Head-Change  Column Row Layer    Maximum-Flux-Residual          L2-NORM 
          0                 1           2             2    2     1       0.7395066947E-02       2    2    1         0.3859382712E+00      0.8732756477E+00
          0                 2           2             2    2     1      -0.7193403493E-03       2    2    1        -0.3859395894E-01      0.8653599931E-01
          0                 3           1             2    2     1       0.4898439178E-04       2    2    1         0.2701577051E-02      0.5985114998E-02

    ------------------------------------------------
       NWT REQUIRED            3 OUTER ITERATIONS 
       AND A TOTAL OF          5 INNER ITERATIONS.
    ------------------------------------------------

 NO OUTPUT CONTROL FOR STRESS PERIOD    4   TIME STEP   14
 
 SOLVING FOR HEAD 
                                                   Max.-Head-Change                         Max.-Flux-Residual
  Residual-Control   Outer-Iter.   Inner-Iter.     Column Row Layer    Maximum-Head-Change  Column Row Layer    Maximum-Flux-Residual          L2-NORM 
          0                 1           2             2    2     1       0.7352092825E-02       2    2    1         0.3836791047E+00      0.8522708167E+00
          0                 2           2             2    2     1      -0.7151601053E-03       2    2    1        -0.3836804008E-01      0.8452999624E-01
          0                 3           1             2    2     1       0.4869973276E-04       2    2    1         0.2685762735E-02      0.5852554705E-02

    ------------------------------------------------
       NWT REQUIRED            3 OUTER ITERATIONS 
       AND A TOTAL OF          5 INNER ITERATIONS.
    ------------------------------------------------

 NO OUTPUT CONTROL FOR STRESS PERIOD    4   TIME STEP   15
 
 SOLVING FOR HEAD 
                                                   Max.-Head-Change                         Max.-Flux-Residual
  Residual-Control   Outer-Iter.   Inner-Iter.     Column Row Layer    Maximum-Head-Change  Column Row Layer    Maximum-Flux-Residual          L2-NORM 
          0                 1           2             2    2     1       0.7309707334E-02       2    2    1         0.3814509500E+00      0.8334775250E+00
          0                 2           2             2    2     1      -0.7110371203E-03       2    2    1        -0.3814522245E-01      0.8273363903E-01
          0                 3           1             2    2     1       0.4841897318E-04       2    2    1         0.2670165520E-02      0.5735065420E-02

    ------------------------------------------------
       NWT REQUIRED            3 OUTER ITERATIONS 
       AND A TOTAL OF          5 INNER ITERATIONS.
    ------------------------------------------------

 NO OUTPUT CONTROL FOR STRESS PERIOD    4   TIME STEP   16
 
 SOLVING FOR HEAD 
                                                   Max.-Head-Change                         Max.-Flux-Residual
  Residual-Control   Outer-Iter.   Inner-Iter.     Column Row Layer    Maximum-Head-Change  Column Row Layer    Maximum-Flux-Residual          L2-NORM 
          0                 1           2             2    2     1       0.7267901142E-02       2    2    1         0.3792533153E+00      0.8166114827E+00
          0                 2           2             2    2     1      -0.7069704864E-03       2    2    1        -0.3792545690E-01      0.8111813131E-01
          0                 3           1             2    2     1       0.4814205054E-04       2    2    1         0.2654781947E-02      0.5628594145E-02

    ------------------------------------------------
       NWT REQUIRED            3 OUTER ITERATIONS 
       AND A TOTAL OF          5 INNER ITERATIONS.
    ------------------------------------------------

 NO OUTPUT CONTROL FOR STRESS PERIOD    4   TIME STEP   17
 
 SOLVING FOR HEAD 
                                                   Max.-Head-Change                         Max.-Flux-Residual
  Residual-Control   Outer-Iter.   Inner-Iter.     Column Row Layer    Maximum-Head-Change  Column Row Layer    Maximum-Flux-Residual          L2-NORM 
          0                 1           2             2    2     1       0.7226578120E-02       2    2    1         0.3770811541E+00      0.8014519016E+00
          0                 2           2             2    2     1      -0.7029508519E-03       2    2    1        -0.3770823872E-01      0.7966932929E-01
          0                 3           1             2    2     1       0.4786832867E-04       2    2    1         0.2639576682E-02      0.5533470574E-02

    ------------------------------------------------
       NWT REQUIRED            3 OUTER ITERATIONS 
       AND A TOTAL OF          5 INNER ITERATIONS.
    ------------------------------------------------

 NO OUTPUT CONTROL FOR STRESS PERIOD    4   TIME STEP   18
 
 SOLVING FOR HEAD 
                                                   Max.-Head-Change                         Max.-Flux-Residual
  Residual-Control   Outer-Iter.   Inner-Iter.     Column Row Layer    Maximum-Head-Change  Column Row Layer    Maximum-Flux-Residual          L2-NORM 
          0                 1           2             2    2     1       0.7185817213E-02       2    2    1         0.3749386069E+00      0.7877850534E+00
          0                 2           2             2    2     1      -0.6989858965E-03       2    2    1        -0.3749398198E-01      0.7835825577E-01
          0                 3           1             2    2     1       0.4759833038E-04       2    2    1         0.2624578723E-02      0.5446225819E-02

    ------------------------------------------------
       NWT REQUIRED            3 OUTER ITERATIONS 
       AND A TOTAL OF          5 INNER ITERATIONS.
    ------------------------------------------------

 NO OUTPUT CONTROL FOR STRESS PERIOD    4   TIME STEP   19
 
 SOLVING FOR HEAD 
                                                   Max.-Head-Change                         Max.-Flux-Residual
  Residual-Control   Outer-Iter.   Inner-Iter.     Column Row Layer    Maximum-Head-Change  Column Row Layer    Maximum-Flux-Residual          L2-NORM 
          0                 1           2             2    2     1       0.7145522239E-02       2    2    1         0.3728206418E+00      0.7754222715E+00
          0                 2           2             2    2     1      -0.6950662649E-03       2    2    1        -0.3728218351E-01      0.7717283978E-01
          0                 3           1             2    2     1       0.4733141808E-04       2    2    1         0.2609752836E-02      0.5368631241E-02

    ------------------------------------------------
       NWT REQUIRED            3 OUTER ITERATIONS 
       AND A TOTAL OF          5 INNER ITERATIONS.
    ------------------------------------------------

 NO OUTPUT CONTROL FOR STRESS PERIOD    4   TIME STEP   20
 
 SOLVING FOR HEAD 
                                                   Max.-Head-Change                         Max.-Flux-Residual
  Residual-Control   Outer-Iter.   Inner-Iter.     Column Row Layer    Maximum-Head-Change  Column Row Layer    Maximum-Flux-Residual          L2-NORM 
          0                 1           2             2    2     1       0.7105773249E-02       2    2    1         0.3707313975E+00      0.7642129154E+00
          0                 2           2             2    2     1      -0.6911997427E-03       2    2    1        -0.3707325714E-01      0.7609518419E-01
          0                 3           1             2    2     1       0.4706812285E-04       2    2    1         0.2595128013E-02      0.5296516330E-02

    ------------------------------------------------
       NWT REQUIRED            3 OUTER ITERATIONS 
       AND A TOTAL OF          5 INNER ITERATIONS.
    ------------------------------------------------

 NO OUTPUT CONTROL FOR STRESS PERIOD    4   TIME STEP   21
 
 SOLVING FOR HEAD 
                                                   Max.-Head-Change                         Max.-Flux-Residual
  Residual-Control   Outer-Iter.   Inner-Iter.     Column Row Layer    Maximum-Head-Change  Column Row Layer    Maximum-Flux-Residual          L2-NORM 
          0                 1           2             2    2     1       0.7066561179E-02       2    2    1         0.3686704618E+00      0.7540221984E+00
          0                 2           2             2    2     1      -0.6873854494E-03       2    2    1        -0.3686716171E-01      0.7511477450E-01
          0                 3           1             2    2     1       0.4680838364E-04       2    2    1         0.2580701348E-02      0.5232455015E-02

    ------------------------------------------------
       NWT REQUIRED            3 OUTER ITERATIONS 
       AND A TOTAL OF          5 INNER ITERATIONS.
    ------------------------------------------------

 NO OUTPUT CONTROL FOR STRESS PERIOD    4   TIME STEP   22
 
 SOLVING FOR HEAD 
                                                   Max.-Head-Change                         Max.-Flux-Residual
  Residual-Control   Outer-Iter.   Inner-Iter.     Column Row Layer    Maximum-Head-Change  Column Row Layer    Maximum-Flux-Residual          L2-NORM 
          0                 1           2             2    2     1       0.7027877936E-02       2    2    1         0.3666373649E+00      0.7447206093E+00
          0                 2           2             2    2     1      -0.6836225964E-03       2    2    1        -0.3666385016E-01      0.7421720127E-01
          0                 3           1             2    2     1       0.4655214766E-04       2    2    1         0.2566469540E-02      0.5172187362E-02

    ------------------------------------------------
       NWT REQUIRED            3 OUTER ITERATIONS 
       AND A TOTAL OF          5 INNER ITERATIONS.
    ------------------------------------------------

 NO OUTPUT CONTROL FOR STRESS PERIOD    4   TIME STEP   23
 
 SOLVING FOR HEAD 
                                                   Max.-Head-Change                         Max.-Flux-Residual
  Residual-Control   Outer-Iter.   Inner-Iter.     Column Row Layer    Maximum-Head-Change  Column Row Layer    Maximum-Flux-Residual          L2-NORM 
          0                 1           2             2    2     1       0.6989628295E-02       2    2    1         0.3646271231E+00      0.7361986117E+00
          0                 2           2             2    2     1      -0.6799019228E-03       2    2    1        -0.3646282421E-01      0.7339498063E-01
          0                 3           1             2    2     1       0.4629878372E-04       2    2    1         0.2552397735E-02      0.5117283843E-02

    ------------------------------------------------
       NWT REQUIRED            3 OUTER ITERATIONS 
       AND A TOTAL OF          5 INNER ITERATIONS.
    ------------------------------------------------

 NO OUTPUT CONTROL FOR STRESS PERIOD    4   TIME STEP   24
 
 SOLVING FOR HEAD 
                                                   Max.-Head-Change                         Max.-Flux-Residual
  Residual-Control   Outer-Iter.   Inner-Iter.     Column Row Layer    Maximum-Head-Change  Column Row Layer    Maximum-Flux-Residual          L2-NORM 
          0                 1           2             2    2     1       0.6951891672E-02       2    2    1         0.3626439268E+00      0.7283768858E+00
          0                 2           2             2    2     1      -0.6762311513E-03       2    2    1        -0.3626450281E-01      0.7263861494E-01
          0                 3           1             2    2     1       0.4604881816E-04       2    2    1         0.2538515242E-02      0.5066396324E-02

    ------------------------------------------------
       NWT REQUIRED            3 OUTER ITERATIONS 
       AND A TOTAL OF          5 INNER ITERATIONS.
    ------------------------------------------------

 NO OUTPUT CONTROL FOR STRESS PERIOD    4   TIME STEP   25
 
 SOLVING FOR HEAD 
                                                   Max.-Head-Change                         Max.-Flux-Residual
  Residual-Control   Outer-Iter.   Inner-Iter.     Column Row Layer    Maximum-Head-Change  Column Row Layer    Maximum-Flux-Residual          L2-NORM 
          0                 1           2             2    2     1       0.6914661135E-02       2    2    1         0.3606873299E+00      0.7211578187E+00
          0                 2           2             2    2     1      -0.6726096091E-03       2    2    1        -0.3606884138E-01      0.7193931484E-01
          0                 3           1             2    2     1       0.4580220485E-04       2    2    1         0.2524818957E-02      0.5019546106E-02

    ------------------------------------------------
       NWT REQUIRED            3 OUTER ITERATIONS 
       AND A TOTAL OF          5 INNER ITERATIONS.
    ------------------------------------------------

 NO OUTPUT CONTROL FOR STRESS PERIOD    4   TIME STEP   26
 
 SOLVING FOR HEAD 
                                                   Max.-Head-Change                         Max.-Flux-Residual
  Residual-Control   Outer-Iter.   Inner-Iter.     Column Row Layer    Maximum-Head-Change  Column Row Layer    Maximum-Flux-Residual          L2-NORM 
          0                 1           2             2    2     1       0.6877927951E-02       2    2    1         0.3587569729E+00      0.7144957719E+00
          0                 2           2             2    2     1      -0.6690364468E-03       2    2    1        -0.3587580403E-01      0.7129307898E-01
          0                 3           1             2    2     1       0.4555888579E-04       2    2    1         0.2511306336E-02      0.4976184076E-02

    ------------------------------------------------
       NWT REQUIRED            3 OUTER ITERATIONS 
       AND A TOTAL OF          5 INNER ITERATIONS.
    ------------------------------------------------

 NO OUTPUT CONTROL FOR STRESS PERIOD    4   TIME STEP   27
 
 SOLVING FOR HEAD 
                                                   Max.-Head-Change                         Max.-Flux-Residual
  Residual-Control   Outer-Iter.   Inner-Iter.     Column Row Layer    Maximum-Head-Change  Column Row Layer    Maximum-Flux-Residual          L2-NORM 
          0                 1           2             2    2     1       0.6841597411E-02       2    2    1         0.3568478384E+00      0.7082946571E+00
          0                 2           2             2    2     1      -0.6655024519E-03       2    2    1        -0.3568488895E-01      0.7068992888E-01
          0                 3           1             2    2     1       0.4531823452E-04       2    2    1         0.2497942326E-02      0.4935528663E-02

    ------------------------------------------------
       NWT REQUIRED            3 OUTER ITERATIONS 
       AND A TOTAL OF          5 INNER ITERATIONS.
    ------------------------------------------------

 NO OUTPUT CONTROL FOR STRESS PERIOD    4   TIME STEP   28
 
 SOLVING FOR HEAD 
                                                   Max.-Head-Change                         Max.-Flux-Residual
  Residual-Control   Outer-Iter.   Inner-Iter.     Column Row Layer    Maximum-Head-Change  Column Row Layer    Maximum-Flux-Residual          L2-NORM 
          0                 1           2             2    2     1       0.6805750214E-02       2    2    1         0.3549641451E+00      0.7025317232E+00
          0                 2           2             2    2     1      -0.6620154723E-03       2    2    1        -0.3549651799E-01      0.7012928640E-01
          0                 3           1             2    2     1       0.4508078401E-04       2    2    1         0.2484756357E-02      0.4897707391E-02

    ------------------------------------------------
       NWT REQUIRED            3 OUTER ITERATIONS 
       AND A TOTAL OF          5 INNER ITERATIONS.
    ------------------------------------------------

 NO OUTPUT CONTROL FOR STRESS PERIOD    4   TIME STEP   29
 
 SOLVING FOR HEAD 
                                                   Max.-Head-Change                         Max.-Flux-Residual
  Residual-Control   Outer-Iter.   Inner-Iter.     Column Row Layer    Maximum-Head-Change  Column Row Layer    Maximum-Flux-Residual          L2-NORM 
          0                 1           2             2    2     1       0.5350702397E-02       2    2    1         0.2788864281E+00      0.6869812915E+00
          0                 2           2             2    2     1      -0.5204783086E-03       2    2    1        -0.2788870075E-01      0.6807774309E-01
          0                 3           1             2    2     1       0.3544263494E-04       2    2    1         0.1952209339E-02      0.4709288867E-02

    ------------------------------------------------
       NWT REQUIRED            3 OUTER ITERATIONS 
       AND A TOTAL OF          5 INNER ITERATIONS.
    ------------------------------------------------

 NO OUTPUT CONTROL FOR STRESS PERIOD    4   TIME STEP   30



 STREAM LISTING     PERIOD      4   STEP       30

 LAYER ROW COL. STREAM  RCH.  FLOW INTO     FLOW TO   FLOW OUT OF   OVRLND.     DIRECT     STREAM       STREAM     STREAM     STREAM   STREAMBED  STREAMBED
                SEG.NO.  NO.  STRM. RCH.    AQUIFER    STRM. RCH.    RUNOFF     PRECIP       ET          HEAD       DEPTH      WIDTH   CONDCTNC.   GRADIENT

   1    1    1     1     1    6.2247E+01  3.7977E-01   6.1867E+01  0.000E+00  0.000E+00  0.000E+00  1.09460E+03  1.553E+00  1.854E+01  8.342E-02  1.518E+00
   1    2    2     1     2    6.1867E+01  5.8816E-01   6.1279E+01  0.000E+00  0.000E+00  0.000E+00  1.08961E+03  1.547E+00  1.848E+01  1.294E-01  1.516E+00
   1    3    3     1     3    6.1279E+01  5.0162E-01   6.0777E+01  0.000E+00  0.000E+00  0.000E+00  1.08396E+03  1.540E+00  1.841E+01  1.105E-01  1.513E+00
   1    3    4     1     4    6.0777E+01  4.6193E-01   6.0316E+01  0.000E+00  0.000E+00  0.000E+00  1.07894E+03  1.534E+00  1.836E+01  1.019E-01  1.511E+00
   1    4    5     2     1    5.8316E+01  3.9026E-01   5.7925E+01  0.000E+00  0.000E+00  0.000E+00  1.07394E+03  2.003E+00  1.200E+01  7.800E-02  1.668E+00
   1    5    6     2     2    5.7925E+01  2.9977E-01   5.7626E+01  0.000E+00  0.000E+00  0.000E+00  1.06851E+03  1.996E+00  1.200E+01  6.000E-02  1.665E+00
   1    6    6     2     3    5.7626E+01  2.9940E-01   5.7326E+01  0.000E+00  0.000E+00  0.000E+00  1.06378E+03  1.990E+00  1.200E+01  6.000E-02  1.663E+00
   1    7    6     2     4    5.7326E+01  2.9902E-01   5.7027E+01  0.000E+00  0.000E+00  0.000E+00  1.05906E+03  1.984E+00  1.200E+01  6.000E-02  1.661E+00
   1    8    6     2     5    5.7027E+01  2.9865E-01   5.6728E+01  0.000E+00  0.000E+00  0.000E+00  1.05434E+03  1.977E+00  1.200E+01  6.000E-02  1.659E+00
   1    3    5     3     1    2.0000E+00  2.8252E-01   1.7175E+00  0.000E+00  0.000E+00  0.000E+00  1.07555E+03  1.909E+00  9.636E+00  7.227E-02  1.955E+00
   1    3    6     3     2    1.7175E+00  2.4905E-01   1.4684E+00  0.000E+00  0.000E+00  0.000E+00  1.07264E+03  1.727E+00  8.909E+00  6.682E-02  1.864E+00
   1    3    7     3     3    1.4684E+00  1.9718E-01   1.2712E+00  0.000E+00  0.000E+00  0.000E+00  1.06987E+03  1.555E+00  8.218E+00  5.547E-02  1.777E+00
   1    4    8     3     4    1.2712E+00  2.2567E-01   1.0456E+00  0.000E+00  0.000E+00  0.000E+00  1.06682E+03  1.364E+00  7.455E+00  6.709E-02  1.682E+00
   1    5    8     3     5    1.0456E+00  1.5790E-01   8.8768E-01  0.000E+00  0.000E+00  0.000E+00  1.06362E+03  1.164E+00  6.655E+00  4.991E-02  1.582E+00
   1    6    8     3     6    8.8768E-01  5.5980E-02   8.3170E-01  0.000E+00  0.000E+00  0.000E+00  1.06158E+03  1.036E+00  6.145E+00  1.844E-02  1.518E+00
   1    5   10     4     1    1.0000E+01  9.0919E-02   9.9091E+00  0.000E+00  0.000E+00  0.000E+00  1.07836E+03  6.368E-01  1.000E+01  2.500E-02  1.212E+00
   1    5    9     4     2    9.9091E+00  1.8158E-01   9.7275E+00  0.000E+00  0.000E+00  0.000E+00  1.07154E+03  6.315E-01  1.000E+01  5.000E-02  1.211E+00
   1    6    8     4     3    9.7275E+00  1.2689E-01   9.6006E+00  0.000E+00  0.000E+00  0.000E+00  1.06381E+03  6.256E-01  1.000E+01  3.500E-02  1.209E+00
   1    6    8     5     1    1.0432E+01  2.2686E-01   1.0205E+01  0.000E+00  0.000E+00  0.000E+00  1.05868E+03  6.790E-01  1.542E+01  6.166E-02  1.226E+00
   1    7    7     5     2    1.0205E+01  2.7894E-01   9.9265E+00  0.000E+00  0.000E+00  0.000E+00  1.05417E+03  6.732E-01  1.519E+01  7.594E-02  1.224E+00
   1    8    7     5     3    9.9265E+00  1.9221E-01   9.7343E+00  0.000E+00  0.000E+00  0.000E+00  1.04992E+03  6.676E-01  1.497E+01  5.241E-02  1.223E+00
   1    8    6     5     4    9.7343E+00  1.3577E-01   9.5985E+00  0.000E+00  0.000E+00  0.000E+00  1.04691E+03  6.637E-01  1.482E+01  3.706E-02  1.221E+00
   1    9    6     6     1    6.6327E+01  3.1138E-01   6.6016E+01  0.000E+00  0.000E+00  0.000E+00  1.04492E+03  2.190E+00  1.200E+01  6.000E-02  1.730E+00
   1   10    7     6     2    6.6016E+01  3.1101E-01   6.5705E+01  0.000E+00  0.000E+00  0.000E+00  1.04037E+03  2.183E+00  1.200E+01  6.000E-02  1.728E+00
   1   11    7     6     3    6.5705E+01  3.1064E-01   6.5394E+01  0.000E+00  0.000E+00  0.000E+00  1.03581E+03  2.177E+00  1.200E+01  6.000E-02  1.726E+00
   1   12    7     6     4    6.5394E+01  3.1026E-01   6.5084E+01  0.000E+00  0.000E+00  0.000E+00  1.03126E+03  2.171E+00  1.200E+01  6.000E-02  1.724E+00
   1   13    7     6     5    6.5084E+01  2.1634E-02   6.5062E+01  0.000E+00  0.000E+00  0.000E+00  1.02808E+03  2.168E+00  1.200E+01  2.400E-02  3.005E-01
   1   14    9     7     1    1.5000E+02  1.3316E+00   1.4867E+02  0.000E+00  0.000E+00  0.000E+00  1.03987E+03  2.288E+00  5.529E+01  5.593E-01  7.936E-01
   1   13    8     7     2    1.4867E+02  1.8148E+00   1.4685E+02  0.000E+00  0.000E+00  0.000E+00  1.03478E+03  2.279E+00  5.526E+01  6.148E-01  9.840E-01
   1   13    7     7     3    1.4685E+02  1.4044E+00   1.4545E+02  0.000E+00  0.000E+00  0.000E+00  1.02969E+03  2.271E+00  5.522E+01  5.585E-01  8.382E-01
   1   13    6     8     1    2.1051E+02  1.0054E+00   2.0951E+02  0.000E+00  0.000E+00  0.000E+00  1.02507E+03  3.196E+00  4.634E+01  4.722E-01  7.097E-01
   1   13    5     8     2    2.0951E+02  1.9098E-01   2.0931E+02  0.000E+00  0.000E+00  0.000E+00  1.01882E+03  3.192E+00  4.629E+01  4.717E-01  1.350E-01
   1   13    4     8     3    2.0931E+02 -2.6823E+00   2.1200E+02  0.000E+00  0.000E+00  0.000E+00  1.01257E+03  3.199E+00  4.639E+01  4.727E+00 -1.891E-01
   1   13    3     8     4    2.1200E+02 -3.8555E+00   2.1585E+02  0.000E+00  0.000E+00  0.000E+00  1.00634E+03  3.218E+00  4.666E+01  4.755E+00 -2.703E-01
   1   13    2     8     5    2.1585E+02 -2.7438E+00   2.1860E+02  0.000E+00  0.000E+00  0.000E+00  1.00011E+03  3.236E+00  4.693E+01  4.782E+00 -1.913E-01
   1   13    1     8     6    2.1860E+02 -2.0240E+00   2.2062E+02  0.000E+00  0.000E+00  0.000E+00  9.95125E+02  3.250E+00  4.712E+01  2.881E+00 -2.342E-01





UNSATURATED ZONE PACKAGE VOLUMETRIC BUDGET FOR  TIME STEP    30 STRESS PERIOD    4
  ------------------------------------------------------------------------------



     CUMULATIVE VOLUMES      L**3       RATES FOR THIS TIME STEP      L**3/T
     ------------------                 ------------------------

           IN:                                      IN:
           ---                                      ---
        INFILTRATION =    34848397.6743          INFILTRATION =           4.4075

          OUT:                                     OUT:
          ----                                     ----
              UZF ET =     5720249.5193                UZF ET =           0.7250
        UZF RECHARGE =       73224.0000          UZF RECHARGE =       0.0000E+00

            IN - OUT =    29054924.1550              IN - OUT =           3.6825

          STORAGE:                                 STORAGE:
          --------                                 --------
      STORAGE CHANGE =    29054923.9753        STORAGE CHANGE =           3.6825

 PERCENT DISCREPANCY IS DIFFERENCE BETWEEN IN-OUT MINUS CHANGE IN STORAGE
 DIVIDED BY THE AVERAGE OF IN AND OUT TIMES 100

 PERCENT DISCREPANCY =           0.00     PERCENT DISCREPANCY =           0.00






1
  VOLUMETRIC BUDGET FOR ENTIRE MODEL AT END OF TIME STEP   30, STRESS PERIOD   4
  ------------------------------------------------------------------------------

     CUMULATIVE VOLUMES      L**3       RATES FOR THIS TIME STEP      L**3/T
     ------------------                 ------------------------

           IN:                                      IN:
           ---                                      ---
               AG WELLS  =           0.0000                 AG WELLS  =           0.0000
      DIVERSION SEGMENTS =           0.0000        DIVERSION SEGMENTS =           0.0000
           GW IRRIGATION =           0.0000             GW IRRIGATION =           0.0000
           SW IRRIGATION =           0.0000             SW IRRIGATION =           0.0000
        SYSTEM LOSSES GW =           0.0000          SYSTEM LOSSES GW =           0.0000
        SYSTEM LOSSES SW =           0.0000          SYSTEM LOSSES SW =           0.0000

                TOTAL IN =           0.0000                  TOTAL IN =           0.0000

          OUT:                                     OUT:
          ----                                     ----
               AG WELLS  =           0.0000                 AG WELLS  =           0.0000
      DIVERSION SEGMENTS =           0.0000        DIVERSION SEGMENTS =           0.0000
           GW IRRIGATION =           0.0000             GW IRRIGATION =           0.0000
           SW IRRIGATION =           0.0000             SW IRRIGATION =           0.0000
        SYSTEM LOSSES GW =           0.0000          SYSTEM LOSSES GW =           0.0000
        SYSTEM LOSSES SW =           0.0000          SYSTEM LOSSES SW =           0.0000

               TOTAL OUT =           0.0000                 TOTAL OUT =           0.0000

                IN - OUT =           0.0000                  IN - OUT =           0.0000

     PERCENT DISCREPANCY =           0.00         PERCENT DISCREPANCY =           0.00



1
  VOLUMETRIC BUDGET FOR ENTIRE MODEL AT END OF TIME STEP   30, STRESS PERIOD   4
  ------------------------------------------------------------------------------

     CUMULATIVE VOLUMES      L**3       RATES FOR THIS TIME STEP      L**3/T
     ------------------                 ------------------------

           IN:                                      IN:
           ---                                      ---
             STORAGE     =     4269767.0000               STORAGE     =           1.1045
       CONSTANT HEAD     =           0.0000         CONSTANT HEAD     =           0.0000
     HEAD DEP BOUNDS     =     2276621.5000       HEAD DEP BOUNDS     =           0.2855
      STREAM LEAKAGE     =    98974152.0000        STREAM LEAKAGE     =          12.9321
        UZF RECHARGE     =       73223.9531          UZF RECHARGE     =           0.0000
               GW ET     =           0.0000                 GW ET     =           0.0000
     SURFACE LEAKAGE     =           0.0000       SURFACE LEAKAGE     =           0.0000
           AG WELLS      =           0.0000             AG WELLS      =           0.0000

                TOTAL IN =   105593768.0000                  TOTAL IN =          14.3221

          OUT:                                     OUT:
          ----                                     ----
             STORAGE     =    22373962.0000               STORAGE     =           2.7195
       CONSTANT HEAD     =           0.0000         CONSTANT HEAD     =           0.0000
     HEAD DEP BOUNDS     =     2327708.5000       HEAD DEP BOUNDS     =           0.2974
      STREAM LEAKAGE     =    80897248.0000        STREAM LEAKAGE     =          11.3056
        UZF RECHARGE     =           0.0000          UZF RECHARGE     =           0.0000
               GW ET     =       2.7337E-06                 GW ET     =       2.0957E-12
     SURFACE LEAKAGE     =           0.0000       SURFACE LEAKAGE     =           0.0000
           AG WELLS      =           0.0000             AG WELLS      =           0.0000

               TOTAL OUT =   105598920.0000                 TOTAL OUT =          14.3225

                IN - OUT =       -5152.0000                  IN - OUT =      -4.5967E-04

     PERCENT DISCREPANCY =          -0.00         PERCENT DISCREPANCY =          -0.00






         TIME SUMMARY AT END OF TIME STEP   30 IN STRESS PERIOD    4
                    SECONDS     MINUTES      HOURS       DAYS        YEARS
                    -----------------------------------------------------------
   TIME STEP LENGTH  87667.      1461.1      24.352      1.0147     2.77799E-03
 STRESS PERIOD TIME 2.63000E+06  43833.      730.56      30.440     8.33397E-02
         TOTAL TIME 7.97639E+06 1.32940E+05  2215.7      92.319     0.25276    
1
1
                            STRESS PERIOD NO.    5, LENGTH =   2630000.    
                            -----------------------------------------------

                              NUMBER OF TIME STEPS =    30

                               MULTIPLIER FOR DELT =     1.000

                            INITIAL TIME STEP SIZE =   87666.66    

 REUSING NON-PARAMETER GHB CELLS FROM LAST STRESS PERIOD

      2 GHB CELLS

 REUSING STREAM SEGMENT DATA FROM LAST STRESS PERIOD



            AREAL INFILTRATION RATE
 READING ON UNIT   19 WITH FORMAT: (10F4.0)            

            1           2           3           4           5           6           7           8           9          10
 ........................................................................................................................
   1   1.2000E-09   0.000       0.000       0.000       0.000       0.000       0.000       0.000       0.000       0.000    
   2   2.1000E-09  2.0000E-09  8.0000E-10  8.5000E-09   0.000       0.000       0.000       0.000       0.000       0.000    
   3   5.0000E-10  1.1000E-09  8.8000E-09  5.5000E-09   0.000       0.000       0.000       0.000       0.000       0.000    
   4   8.5000E-09  1.1000E-09  1.1000E-09  1.1000E-09  2.0000E-09   0.000       0.000       0.000       0.000       0.000    
   5   8.5000E-09  1.1000E-09  1.1000E-09  1.1000E-09  1.1000E-09   0.000       0.000       0.000       0.000       0.000    
   6   8.5000E-09  5.2000E-09  2.1000E-09  1.1000E-09  1.5000E-09   0.000       0.000       0.000       0.000       0.000    
   7   8.5000E-09  5.2000E-09  2.1000E-09  1.2000E-09  2.0000E-09   0.000       0.000       0.000       0.000       0.000    
   8   5.0000E-10  5.2000E-09  2.1000E-09  1.2000E-09  5.0000E-09   0.000       0.000       0.000       0.000       0.000    
   9   5.0000E-10  5.2000E-09  2.1000E-09  1.2000E-09  5.0000E-09   0.000       0.000       0.000       0.000       0.000    
  10   5.0000E-10  5.2000E-09  2.1000E-09  1.2000E-09  5.8000E-09   0.000       0.000       0.000       0.000       0.000    
  11   1.0000E-10  1.1000E-09  1.1000E-09  1.2000E-09  5.0000E-09   0.000       0.000       0.000       0.000       0.000    
  12   1.1000E-09  1.1000E-09  1.1000E-09  1.1000E-09  2.0000E-09   0.000       0.000       0.000       0.000       0.000    
  13   1.1000E-09  2.2000E-09  2.2000E-09  2.1000E-09  1.0000E-09   0.000       0.000       0.000       0.000       0.000    
  14   2.0000E-10  5.5000E-09  5.5000E-09  5.2000E-09  1.0000E-09   0.000       0.000       0.000       0.000       0.000    
  15    0.000      8.8000E-09  8.8000E-09   0.000       0.000       0.000       0.000       0.000       0.000       0.000    

                  ET RATE =  2.500000E-08

 USING ET EXTINCTION DEPTH FROM PREVIOUS STRESS PERIOD. CURRENT PERIOD IS:       5

 USING EXTINCTION WATER CONTENT FROM PREVIOUS STRESS PERIOD. CURRENT PERIOD IS:       5

 USING AIR ENTRY PRESSURE FROM PREVIOUS STRESS PERIOD. CURRENT PERIOD IS:       5

 USING ROOT PRESSURE HEAD FROM PREVIOUS STRESS PERIOD. CURRENT PERIOD IS:       5

 USING ROOT ACTIVITY FROM PREVIOUS STRESS PERIOD. CURRENT PERIOD IS:       5

 PROCESSING AG STRESS PERIOD DATA

 READING AG STRESS PERIOD DATA

 READING IRRIGATION WELL

 END PROCESSING AG STRESS PERIOD DATA OPTIONS
 
 SOLVING FOR HEAD 
                                                   Max.-Head-Change                         Max.-Flux-Residual
  Residual-Control   Outer-Iter.   Inner-Iter.     Column Row Layer    Maximum-Head-Change  Column Row Layer    Maximum-Flux-Residual          L2-NORM 
          0                 1           2             4   13     1      -0.1617896694E-01       4   13    1        -0.9304126800E+00      0.1617913792E+01
          0                 2           2             4   13     1       0.1560624616E-02       4   13    1         0.9227662287E-01      0.1578028658E+00
          0                 3           1             4   13     1      -0.1050424418E-03       4   13    1        -0.6385862282E-02      0.1067102097E-01
          0                 4           1             4   13     1       0.4095893142E-05       4   13    1         0.2560285566E-03      0.4117127831E-03

    ------------------------------------------------
       NWT REQUIRED            4 OUTER ITERATIONS 
       AND A TOTAL OF          6 INNER ITERATIONS.
    ------------------------------------------------

 OUTPUT CONTROL FOR STRESS PERIOD    5   TIME STEP    1
    PRINT BUDGET
    SAVE BUDGET
 UBDSV1 SAVING "         STORAGE" ON UNIT 102 AT TIME STEP  1, STRESS PERIOD   5
 UBDSV2 SAVING "   CONSTANT HEAD" ON UNIT 102 AT TIME STEP  1, STRESS PERIOD   5
 UBDSV1 SAVING "FLOW RIGHT FACE " ON UNIT 102 AT TIME STEP  1, STRESS PERIOD   5
 UBDSV1 SAVING "FLOW FRONT FACE " ON UNIT 102 AT TIME STEP  1, STRESS PERIOD   5

  HEAD DEP BOUNDS   PERIOD    5   STEP     1
 BOUNDARY      1   LAYER   1   ROW    13   COL     1   RATE   -0.297160    
 BOUNDARY      2   LAYER   1   ROW    14   COL     9   RATE    0.285471    



 STREAM LISTING     PERIOD      5   STEP        1

 LAYER ROW COL. STREAM  RCH.  FLOW INTO     FLOW TO   FLOW OUT OF   OVRLND.     DIRECT     STREAM       STREAM     STREAM     STREAM   STREAMBED  STREAMBED
                SEG.NO.  NO.  STRM. RCH.    AQUIFER    STRM. RCH.    RUNOFF     PRECIP       ET          HEAD       DEPTH      WIDTH   CONDCTNC.   GRADIENT

   1    1    1     1     1    2.8000E+01  2.5860E-01   2.7741E+01  0.000E+00  0.000E+00  0.000E+00  1.09427E+03  1.221E+00  1.361E+01  6.126E-02  1.407E+00
   1    2    2     1     2    2.7741E+01  4.0002E-01   2.7341E+01  0.000E+00  0.000E+00  0.000E+00  1.08928E+03  1.217E+00  1.355E+01  9.487E-02  1.406E+00
   1    3    3     1     3    2.7341E+01  3.4070E-01   2.7001E+01  0.000E+00  0.000E+00  0.000E+00  1.08363E+03  1.212E+00  1.348E+01  8.090E-02  1.404E+00
   1    3    4     1     4    2.7001E+01  3.1335E-01   2.6687E+01  0.000E+00  0.000E+00  0.000E+00  1.07861E+03  1.207E+00  1.342E+01  7.448E-02  1.402E+00
   1    4    5     2     1    2.4687E+01  3.2711E-01   2.4360E+01  0.000E+00  0.000E+00  0.000E+00  1.07313E+03  1.194E+00  1.200E+01  7.800E-02  1.398E+00
   1    5    6     2     2    2.4360E+01  2.5111E-01   2.4109E+01  0.000E+00  0.000E+00  0.000E+00  1.06769E+03  1.185E+00  1.200E+01  6.000E-02  1.395E+00
   1    6    6     2     3    2.4109E+01  2.5067E-01   2.3858E+01  0.000E+00  0.000E+00  0.000E+00  1.06297E+03  1.178E+00  1.200E+01  6.000E-02  1.393E+00
   1    7    6     2     4    2.3858E+01  2.5023E-01   2.3608E+01  0.000E+00  0.000E+00  0.000E+00  1.05825E+03  1.170E+00  1.200E+01  6.000E-02  1.390E+00
   1    8    6     2     5    2.3608E+01  2.4978E-01   2.3358E+01  0.000E+00  0.000E+00  0.000E+00  1.05352E+03  1.163E+00  1.200E+01  6.000E-02  1.388E+00
   1    3    5     3     1    2.0000E+00  2.8252E-01   1.7175E+00  0.000E+00  0.000E+00  0.000E+00  1.07555E+03  1.909E+00  9.636E+00  7.227E-02  1.955E+00
   1    3    6     3     2    1.7175E+00  2.4905E-01   1.4684E+00  0.000E+00  0.000E+00  0.000E+00  1.07264E+03  1.727E+00  8.909E+00  6.682E-02  1.864E+00
   1    3    7     3     3    1.4684E+00  1.9718E-01   1.2712E+00  0.000E+00  0.000E+00  0.000E+00  1.06987E+03  1.555E+00  8.218E+00  5.547E-02  1.777E+00
   1    4    8     3     4    1.2712E+00  2.2567E-01   1.0456E+00  0.000E+00  0.000E+00  0.000E+00  1.06682E+03  1.364E+00  7.455E+00  6.709E-02  1.682E+00
   1    5    8     3     5    1.0456E+00  1.5790E-01   8.8768E-01  0.000E+00  0.000E+00  0.000E+00  1.06362E+03  1.164E+00  6.655E+00  4.991E-02  1.582E+00
   1    6    8     3     6    8.8768E-01  5.5980E-02   8.3170E-01  0.000E+00  0.000E+00  0.000E+00  1.06158E+03  1.036E+00  6.145E+00  1.844E-02  1.518E+00
   1    5   10     4     1    1.0000E+01  9.0919E-02   9.9091E+00  0.000E+00  0.000E+00  0.000E+00  1.07836E+03  6.368E-01  1.000E+01  2.500E-02  1.212E+00
   1    5    9     4     2    9.9091E+00  1.8158E-01   9.7275E+00  0.000E+00  0.000E+00  0.000E+00  1.07154E+03  6.315E-01  1.000E+01  5.000E-02  1.211E+00
   1    6    8     4     3    9.7275E+00  1.2689E-01   9.6006E+00  0.000E+00  0.000E+00  0.000E+00  1.06381E+03  6.256E-01  1.000E+01  3.500E-02  1.209E+00
   1    6    8     5     1    1.0432E+01  2.2686E-01   1.0205E+01  0.000E+00  0.000E+00  0.000E+00  1.05868E+03  6.790E-01  1.542E+01  6.166E-02  1.226E+00
   1    7    7     5     2    1.0205E+01  2.7894E-01   9.9265E+00  0.000E+00  0.000E+00  0.000E+00  1.05417E+03  6.732E-01  1.519E+01  7.594E-02  1.224E+00
   1    8    7     5     3    9.9265E+00  1.9221E-01   9.7343E+00  0.000E+00  0.000E+00  0.000E+00  1.04992E+03  6.676E-01  1.497E+01  5.241E-02  1.223E+00
   1    8    6     5     4    9.7343E+00  1.3577E-01   9.5985E+00  0.000E+00  0.000E+00  0.000E+00  1.04691E+03  6.637E-01  1.482E+01  3.706E-02  1.221E+00
   1    9    6     6     1    3.2957E+01  2.6627E-01   3.2691E+01  0.000E+00  0.000E+00  0.000E+00  1.04417E+03  1.438E+00  1.200E+01  6.000E-02  1.479E+00
   1   10    7     6     2    3.2691E+01  2.6584E-01   3.2425E+01  0.000E+00  0.000E+00  0.000E+00  1.03961E+03  1.431E+00  1.200E+01  6.000E-02  1.477E+00
   1   11    7     6     3    3.2425E+01  2.6542E-01   3.2159E+01  0.000E+00  0.000E+00  0.000E+00  1.03506E+03  1.424E+00  1.200E+01  6.000E-02  1.475E+00
   1   12    7     6     4    3.2159E+01  2.6500E-01   3.1894E+01  0.000E+00  0.000E+00  0.000E+00  1.03051E+03  1.417E+00  1.200E+01  6.000E-02  1.472E+00
   1   13    7     6     5    3.1894E+01  3.5108E-03   3.1891E+01  0.000E+00  0.000E+00  0.000E+00  1.02732E+03  1.413E+00  1.200E+01  2.400E-02  4.876E-02
   1   14    9     7     1    1.5000E+02  1.3316E+00   1.4867E+02  0.000E+00  0.000E+00  0.000E+00  1.03987E+03  2.288E+00  5.529E+01  5.593E-01  7.936E-01
   1   13    8     7     2    1.4867E+02  1.8147E+00   1.4685E+02  0.000E+00  0.000E+00  0.000E+00  1.03478E+03  2.279E+00  5.526E+01  6.148E-01  9.839E-01
   1   13    7     7     3    1.4685E+02  1.4041E+00   1.4545E+02  0.000E+00  0.000E+00  0.000E+00  1.02969E+03  2.271E+00  5.522E+01  5.585E-01  8.381E-01
   1   13    6     8     1    1.7734E+02  8.5541E-01   1.7649E+02  0.000E+00  0.000E+00  0.000E+00  1.02487E+03  2.997E+00  4.345E+01  4.428E-01  6.440E-01
   1   13    5     8     2    1.7649E+02  9.1560E-02   1.7639E+02  0.000E+00  0.000E+00  0.000E+00  1.01862E+03  2.994E+00  4.341E+01  4.423E-01  6.900E-02
   1   13    4     8     3    1.7639E+02 -3.3208E+00   1.7971E+02  0.000E+00  0.000E+00  0.000E+00  1.01238E+03  3.004E+00  4.356E+01  4.439E+00 -2.494E-01
   1   13    3     8     4    1.7971E+02 -4.4181E+00   1.8413E+02  0.000E+00  0.000E+00  0.000E+00  1.00615E+03  3.028E+00  4.391E+01  4.474E+00 -3.291E-01
   1   13    2     8     5    1.8413E+02 -3.3539E+00   1.8749E+02  0.000E+00  0.000E+00  0.000E+00  9.99927E+02  3.052E+00  4.426E+01  4.510E+00 -2.479E-01
   1   13    1     8     6    1.8749E+02 -2.3817E+00   1.8987E+02  0.000E+00  0.000E+00  0.000E+00  9.94945E+02  3.070E+00  4.451E+01  2.722E+00 -2.917E-01



 UBDSV3 SAVING "           GW ET" ON UNIT  61 AT TIME STEP  1, STRESS PERIOD   5
 UBDSV3 SAVING "    UZF RECHARGE" ON UNIT  61 AT TIME STEP  1, STRESS PERIOD   5
 UBDSV3 SAVING " SURFACE LEAKAGE" ON UNIT  61 AT TIME STEP  1, STRESS PERIOD   5
 UBDSV3 SAVING "       HORT+DUNN" ON UNIT  61 AT TIME STEP  1, STRESS PERIOD   5
 UBDSV3 SAVING "  STORAGE CHANGE" ON UNIT  61 AT TIME STEP  1, STRESS PERIOD   5


UNSATURATED ZONE PACKAGE VOLUMETRIC BUDGET FOR  TIME STEP     1 STRESS PERIOD    5
  ------------------------------------------------------------------------------



     CUMULATIVE VOLUMES      L**3       RATES FOR THIS TIME STEP      L**3/T
     ------------------                 ------------------------

           IN:                                      IN:
           ---                                      ---
        INFILTRATION =    35234788.4929          INFILTRATION =           4.4075

          OUT:                                     OUT:
          ----                                     ----
              UZF ET =     8897856.9021                UZF ET =          36.2465
        UZF RECHARGE =       73224.0000          UZF RECHARGE =       0.0000E+00

            IN - OUT =    26263707.5908              IN - OUT =         -31.8390

          STORAGE:                                 STORAGE:
          --------                                 --------
      STORAGE CHANGE =    26263707.3417        STORAGE CHANGE =         -31.8390

 PERCENT DISCREPANCY IS DIFFERENCE BETWEEN IN-OUT MINUS CHANGE IN STORAGE
 DIVIDED BY THE AVERAGE OF IN AND OUT TIMES 100

 PERCENT DISCREPANCY =           0.00     PERCENT DISCREPANCY =           0.00






 

            AG WELLS      PERIOD    5   STEP   1
 AG WELL      1   LAYER   1   ROW     6   COL     4   RATE     0.00000    
 AG WELL      2   LAYER   1   ROW     6   COL     5   RATE     0.00000    
 AG WELL      3   LAYER   1   ROW     7   COL     4   RATE     0.00000    
 AG WELL      4   LAYER   1   ROW     7   COL     5   RATE     0.00000    
 AG WELL      5   LAYER   1   ROW     8   COL     4   RATE     0.00000    
 AG WELL      6   LAYER   1   ROW     8   COL     5   RATE     0.00000    
 
 

        GW IRRIGATION     PERIOD    5   STEP   1
 AG WELL      1   ROW     6   COL     4   RATE     0.00000    
 AG WELL      2   ROW     6   COL     5   RATE     0.00000    
 AG WELL      3   ROW     7   COL     4   RATE     0.00000    
 AG WELL      4   ROW     7   COL     5   RATE     0.00000    
 AG WELL      5   ROW     8   COL     4   RATE     0.00000    
 AG WELL      6   ROW     8   COL     5   RATE     0.00000    
 
1
  VOLUMETRIC BUDGET FOR ENTIRE MODEL AT END OF TIME STEP    1, STRESS PERIOD   5
  ------------------------------------------------------------------------------

     CUMULATIVE VOLUMES      L**3       RATES FOR THIS TIME STEP      L**3/T
     ------------------                 ------------------------

           IN:                                      IN:
           ---                                      ---
               AG WELLS  =           0.0000                 AG WELLS  =           0.0000
      DIVERSION SEGMENTS =           0.0000        DIVERSION SEGMENTS =           0.0000
           GW IRRIGATION =           0.0000             GW IRRIGATION =           0.0000
           SW IRRIGATION =           0.0000             SW IRRIGATION =           0.0000
        SYSTEM LOSSES GW =           0.0000          SYSTEM LOSSES GW =           0.0000
        SYSTEM LOSSES SW =           0.0000          SYSTEM LOSSES SW =           0.0000

                TOTAL IN =           0.0000                  TOTAL IN =           0.0000

          OUT:                                     OUT:
          ----                                     ----
               AG WELLS  =           0.0000                 AG WELLS  =           0.0000
      DIVERSION SEGMENTS =           0.0000        DIVERSION SEGMENTS =           0.0000
           GW IRRIGATION =           0.0000             GW IRRIGATION =           0.0000
           SW IRRIGATION =           0.0000             SW IRRIGATION =           0.0000
        SYSTEM LOSSES GW =           0.0000          SYSTEM LOSSES GW =           0.0000
        SYSTEM LOSSES SW =           0.0000          SYSTEM LOSSES SW =           0.0000

               TOTAL OUT =           0.0000                 TOTAL OUT =           0.0000

                IN - OUT =           0.0000                  IN - OUT =           0.0000

     PERCENT DISCREPANCY =           0.00         PERCENT DISCREPANCY =           0.00



1
  VOLUMETRIC BUDGET FOR ENTIRE MODEL AT END OF TIME STEP    1, STRESS PERIOD   5
  ------------------------------------------------------------------------------

     CUMULATIVE VOLUMES      L**3       RATES FOR THIS TIME STEP      L**3/T
     ------------------                 ------------------------

           IN:                                      IN:
           ---                                      ---
             STORAGE     =     4578149.0000               STORAGE     =           3.5177
       CONSTANT HEAD     =           0.0000         CONSTANT HEAD     =           0.0000
     HEAD DEP BOUNDS     =     2301647.7500       HEAD DEP BOUNDS     =           0.2855
      STREAM LEAKAGE     =    99991648.0000        STREAM LEAKAGE     =          11.6064
        UZF RECHARGE     =       73223.9531          UZF RECHARGE     =           0.0000
               GW ET     =           0.0000                 GW ET     =           0.0000
     SURFACE LEAKAGE     =           0.0000       SURFACE LEAKAGE     =           0.0000
           AG WELLS      =           0.0000             AG WELLS      =           0.0000

                TOTAL IN =   106944672.0000                  TOTAL IN =          15.4095

          OUT:                                     OUT:
          ----                                     ----
             STORAGE     =    22517542.0000               STORAGE     =           1.6378
       CONSTANT HEAD     =           0.0000         CONSTANT HEAD     =           0.0000
     HEAD DEP BOUNDS     =     2353759.5000       HEAD DEP BOUNDS     =           0.2972
      STREAM LEAKAGE     =    82078520.0000        STREAM LEAKAGE     =          13.4746
        UZF RECHARGE     =           0.0000          UZF RECHARGE     =           0.0000
               GW ET     =       8.6605E-06                 GW ET     =       6.7606E-11
     SURFACE LEAKAGE     =           0.0000       SURFACE LEAKAGE     =           0.0000
           AG WELLS      =           0.0000             AG WELLS      =           0.0000

               TOTAL OUT =   106949824.0000                 TOTAL OUT =          15.4095

                IN - OUT =       -5152.0000                  IN - OUT =      -1.9073E-06

     PERCENT DISCREPANCY =          -0.00         PERCENT DISCREPANCY =          -0.00






         TIME SUMMARY AT END OF TIME STEP    1 IN STRESS PERIOD    5
                    SECONDS     MINUTES      HOURS       DAYS        YEARS
                    -----------------------------------------------------------
   TIME STEP LENGTH  87667.      1461.1      24.352      1.0147     2.77799E-03
 STRESS PERIOD TIME  87667.      1461.1      24.352      1.0147     2.77799E-03
         TOTAL TIME 8.06406E+06 1.34401E+05  2240.0      93.334     0.25553    
1
 
 SOLVING FOR HEAD 
                                                   Max.-Head-Change                         Max.-Flux-Residual
  Residual-Control   Outer-Iter.   Inner-Iter.     Column Row Layer    Maximum-Head-Change  Column Row Layer    Maximum-Flux-Residual          L2-NORM 
          0                 1           2             4   13     1      -0.1462700766E-01       4   13    1        -0.8408200695E+00      0.1615550726E+01
          0                 2           2             4   13     1       0.1410824548E-02       4   13    1         0.8338513914E-01      0.1569123227E+00
          0                 3           2             4    8     1      -0.2753590449E-02       4    8    1        -0.1561594009E+00      0.2210819805E+00
          0                 4           2             4    8     1       0.1095675921E-03       4    8    1         0.6385177127E-02      0.9039877381E-02
          0                 5           1             4    8     1      -0.1351016312E-05       4    7    1        -0.8084493334E-04      0.1148271039E-03

    ------------------------------------------------
       NWT REQUIRED            5 OUTER ITERATIONS 
       AND A TOTAL OF          9 INNER ITERATIONS.
    ------------------------------------------------

 OUTPUT CONTROL FOR STRESS PERIOD    5   TIME STEP    2
    PRINT BUDGET
    SAVE BUDGET
 UBDSV1 SAVING "         STORAGE" ON UNIT 102 AT TIME STEP  2, STRESS PERIOD   5
 UBDSV2 SAVING "   CONSTANT HEAD" ON UNIT 102 AT TIME STEP  2, STRESS PERIOD   5
 UBDSV1 SAVING "FLOW RIGHT FACE " ON UNIT 102 AT TIME STEP  2, STRESS PERIOD   5
 UBDSV1 SAVING "FLOW FRONT FACE " ON UNIT 102 AT TIME STEP  2, STRESS PERIOD   5

  HEAD DEP BOUNDS   PERIOD    5   STEP     2
 BOUNDARY      1   LAYER   1   ROW    13   COL     1   RATE   -0.296896    
 BOUNDARY      2   LAYER   1   ROW    14   COL     9   RATE    0.285471    



 STREAM LISTING     PERIOD      5   STEP        2

 LAYER ROW COL. STREAM  RCH.  FLOW INTO     FLOW TO   FLOW OUT OF   OVRLND.     DIRECT     STREAM       STREAM     STREAM     STREAM   STREAMBED  STREAMBED
                SEG.NO.  NO.  STRM. RCH.    AQUIFER    STRM. RCH.    RUNOFF     PRECIP       ET          HEAD       DEPTH      WIDTH   CONDCTNC.   GRADIENT

   1    1    1     1     1    2.8000E+01  2.5860E-01   2.7741E+01  0.000E+00  0.000E+00  0.000E+00  1.09427E+03  1.221E+00  1.361E+01  6.126E-02  1.407E+00
   1    2    2     1     2    2.7741E+01  4.0002E-01   2.7341E+01  0.000E+00  0.000E+00  0.000E+00  1.08928E+03  1.217E+00  1.355E+01  9.487E-02  1.406E+00
   1    3    3     1     3    2.7341E+01  3.4070E-01   2.7001E+01  0.000E+00  0.000E+00  0.000E+00  1.08363E+03  1.212E+00  1.348E+01  8.090E-02  1.404E+00
   1    3    4     1     4    2.7001E+01  3.1335E-01   2.6687E+01  0.000E+00  0.000E+00  0.000E+00  1.07861E+03  1.207E+00  1.342E+01  7.448E-02  1.402E+00
   1    4    5     2     1    2.4687E+01  3.2711E-01   2.4360E+01  0.000E+00  0.000E+00  0.000E+00  1.07313E+03  1.194E+00  1.200E+01  7.800E-02  1.398E+00
   1    5    6     2     2    2.4360E+01  2.5111E-01   2.4109E+01  0.000E+00  0.000E+00  0.000E+00  1.06769E+03  1.185E+00  1.200E+01  6.000E-02  1.395E+00
   1    6    6     2     3    2.4109E+01  2.5067E-01   2.3858E+01  0.000E+00  0.000E+00  0.000E+00  1.06297E+03  1.178E+00  1.200E+01  6.000E-02  1.393E+00
   1    7    6     2     4    2.3858E+01  2.5023E-01   2.3608E+01  0.000E+00  0.000E+00  0.000E+00  1.05825E+03  1.170E+00  1.200E+01  6.000E-02  1.390E+00
   1    8    6     2     5    2.3608E+01  2.4978E-01   2.3358E+01  0.000E+00  0.000E+00  0.000E+00  1.05352E+03  1.163E+00  1.200E+01  6.000E-02  1.388E+00
   1    3    5     3     1    2.0000E+00  2.8252E-01   1.7175E+00  0.000E+00  0.000E+00  0.000E+00  1.07555E+03  1.909E+00  9.636E+00  7.227E-02  1.955E+00
   1    3    6     3     2    1.7175E+00  2.4905E-01   1.4684E+00  0.000E+00  0.000E+00  0.000E+00  1.07264E+03  1.727E+00  8.909E+00  6.682E-02  1.864E+00
   1    3    7     3     3    1.4684E+00  1.9718E-01   1.2712E+00  0.000E+00  0.000E+00  0.000E+00  1.06987E+03  1.555E+00  8.218E+00  5.547E-02  1.777E+00
   1    4    8     3     4    1.2712E+00  2.2567E-01   1.0456E+00  0.000E+00  0.000E+00  0.000E+00  1.06682E+03  1.364E+00  7.455E+00  6.709E-02  1.682E+00
   1    5    8     3     5    1.0456E+00  1.5790E-01   8.8768E-01  0.000E+00  0.000E+00  0.000E+00  1.06362E+03  1.164E+00  6.655E+00  4.991E-02  1.582E+00
   1    6    8     3     6    8.8768E-01  5.5980E-02   8.3170E-01  0.000E+00  0.000E+00  0.000E+00  1.06158E+03  1.036E+00  6.145E+00  1.844E-02  1.518E+00
   1    5   10     4     1    1.0000E+01  9.0919E-02   9.9091E+00  0.000E+00  0.000E+00  0.000E+00  1.07836E+03  6.368E-01  1.000E+01  2.500E-02  1.212E+00
   1    5    9     4     2    9.9091E+00  1.8158E-01   9.7275E+00  0.000E+00  0.000E+00  0.000E+00  1.07154E+03  6.315E-01  1.000E+01  5.000E-02  1.211E+00
   1    6    8     4     3    9.7275E+00  1.2689E-01   9.6006E+00  0.000E+00  0.000E+00  0.000E+00  1.06381E+03  6.256E-01  1.000E+01  3.500E-02  1.209E+00
   1    6    8     5     1    1.0432E+01  2.2686E-01   1.0205E+01  0.000E+00  0.000E+00  0.000E+00  1.05868E+03  6.790E-01  1.542E+01  6.166E-02  1.226E+00
   1    7    7     5     2    1.0205E+01  2.7894E-01   9.9265E+00  0.000E+00  0.000E+00  0.000E+00  1.05417E+03  6.732E-01  1.519E+01  7.594E-02  1.224E+00
   1    8    7     5     3    9.9265E+00  1.9221E-01   9.7343E+00  0.000E+00  0.000E+00  0.000E+00  1.04992E+03  6.676E-01  1.497E+01  5.241E-02  1.223E+00
   1    8    6     5     4    9.7343E+00  1.3577E-01   9.5985E+00  0.000E+00  0.000E+00  0.000E+00  1.04691E+03  6.637E-01  1.482E+01  3.706E-02  1.221E+00
   1    9    6     6     1    3.2957E+01  2.6627E-01   3.2691E+01  0.000E+00  0.000E+00  0.000E+00  1.04417E+03  1.438E+00  1.200E+01  6.000E-02  1.479E+00
   1   10    7     6     2    3.2691E+01  2.6584E-01   3.2425E+01  0.000E+00  0.000E+00  0.000E+00  1.03961E+03  1.431E+00  1.200E+01  6.000E-02  1.477E+00
   1   11    7     6     3    3.2425E+01  2.6542E-01   3.2159E+01  0.000E+00  0.000E+00  0.000E+00  1.03506E+03  1.424E+00  1.200E+01  6.000E-02  1.475E+00
   1   12    7     6     4    3.2159E+01  2.6500E-01   3.1894E+01  0.000E+00  0.000E+00  0.000E+00  1.03051E+03  1.417E+00  1.200E+01  6.000E-02  1.472E+00
   1   13    7     6     5    3.1894E+01  3.4993E-03   3.1891E+01  0.000E+00  0.000E+00  0.000E+00  1.02732E+03  1.413E+00  1.200E+01  2.400E-02  4.860E-02
   1   14    9     7     1    1.5000E+02  1.3316E+00   1.4867E+02  0.000E+00  0.000E+00  0.000E+00  1.03987E+03  2.288E+00  5.529E+01  5.593E-01  7.936E-01
   1   13    8     7     2    1.4867E+02  1.8145E+00   1.4685E+02  0.000E+00  0.000E+00  0.000E+00  1.03478E+03  2.279E+00  5.526E+01  6.148E-01  9.838E-01
   1   13    7     7     3    1.4685E+02  1.4038E+00   1.4545E+02  0.000E+00  0.000E+00  0.000E+00  1.02969E+03  2.271E+00  5.522E+01  5.585E-01  8.379E-01
   1   13    6     8     1    1.7734E+02  8.5615E-01   1.7648E+02  0.000E+00  0.000E+00  0.000E+00  1.02487E+03  2.997E+00  4.345E+01  4.428E-01  6.445E-01
   1   13    5     8     2    1.7648E+02  9.1948E-02   1.7639E+02  0.000E+00  0.000E+00  0.000E+00  1.01862E+03  2.994E+00  4.341E+01  4.423E-01  6.929E-02
   1   13    4     8     3    1.7639E+02 -3.2624E+00   1.7966E+02  0.000E+00  0.000E+00  0.000E+00  1.01238E+03  3.004E+00  4.355E+01  4.438E+00 -2.450E-01
   1   13    3     8     4    1.7966E+02 -4.3654E+00   1.8402E+02  0.000E+00  0.000E+00  0.000E+00  1.00615E+03  3.028E+00  4.390E+01  4.474E+00 -3.253E-01
   1   13    2     8     5    1.8402E+02 -3.2975E+00   1.8732E+02  0.000E+00  0.000E+00  0.000E+00  9.99926E+02  3.051E+00  4.425E+01  4.509E+00 -2.438E-01
   1   13    1     8     6    1.8732E+02 -2.3649E+00   1.8968E+02  0.000E+00  0.000E+00  0.000E+00  9.94944E+02  3.069E+00  4.450E+01  2.721E+00 -2.897E-01



 UBDSV3 SAVING "           GW ET" ON UNIT  61 AT TIME STEP  2, STRESS PERIOD   5
 UBDSV3 SAVING "    UZF RECHARGE" ON UNIT  61 AT TIME STEP  2, STRESS PERIOD   5
 UBDSV3 SAVING " SURFACE LEAKAGE" ON UNIT  61 AT TIME STEP  2, STRESS PERIOD   5
 UBDSV3 SAVING "       HORT+DUNN" ON UNIT  61 AT TIME STEP  2, STRESS PERIOD   5
 UBDSV3 SAVING "  STORAGE CHANGE" ON UNIT  61 AT TIME STEP  2, STRESS PERIOD   5


UNSATURATED ZONE PACKAGE VOLUMETRIC BUDGET FOR  TIME STEP     2 STRESS PERIOD    5
  ------------------------------------------------------------------------------



     CUMULATIVE VOLUMES      L**3       RATES FOR THIS TIME STEP      L**3/T
     ------------------                 ------------------------

           IN:                                      IN:
           ---                                      ---
        INFILTRATION =    35737542.0115          INFILTRATION =           5.7348

          OUT:                                     OUT:
          ----                                     ----
              UZF ET =    11112170.3235                UZF ET =          25.2583
        UZF RECHARGE =       73224.0000          UZF RECHARGE =       0.0000E+00

            IN - OUT =    24552147.6880              IN - OUT =         -19.5235

          STORAGE:                                 STORAGE:
          --------                                 --------
      STORAGE CHANGE =    24552147.4052        STORAGE CHANGE =         -19.5235

 PERCENT DISCREPANCY IS DIFFERENCE BETWEEN IN-OUT MINUS CHANGE IN STORAGE
 DIVIDED BY THE AVERAGE OF IN AND OUT TIMES 100

 PERCENT DISCREPANCY =           0.00     PERCENT DISCREPANCY =           0.00






 

            AG WELLS      PERIOD    5   STEP   2
 AG WELL      1   LAYER   1   ROW     6   COL     4   RATE   -0.553127    
 AG WELL      2   LAYER   1   ROW     6   COL     5   RATE   -2.569861E-03
 AG WELL      3   LAYER   1   ROW     7   COL     4   RATE   -0.385817    
 AG WELL      4   LAYER   1   ROW     7   COL     5   RATE     0.00000    
 AG WELL      5   LAYER   1   ROW     8   COL     4   RATE   -0.385817    
 AG WELL      6   LAYER   1   ROW     8   COL     5   RATE     0.00000    
 
 

        GW IRRIGATION     PERIOD    5   STEP   2
 AG WELL      1   ROW     6   COL     4   RATE    0.553127    
 AG WELL      2   ROW     6   COL     5   RATE    2.569862E-03
 AG WELL      3   ROW     7   COL     4   RATE    0.385817    
 AG WELL      4   ROW     7   COL     5   RATE     0.00000    
 AG WELL      5   ROW     8   COL     4   RATE    0.385817    
 AG WELL      6   ROW     8   COL     5   RATE     0.00000    
 
1
  VOLUMETRIC BUDGET FOR ENTIRE MODEL AT END OF TIME STEP    2, STRESS PERIOD   5
  ------------------------------------------------------------------------------

     CUMULATIVE VOLUMES      L**3       RATES FOR THIS TIME STEP      L**3/T
     ------------------                 ------------------------

           IN:                                      IN:
           ---                                      ---
               AG WELLS  =      116362.6953                 AG WELLS  =           1.3273
      DIVERSION SEGMENTS =           0.0000        DIVERSION SEGMENTS =           0.0000
           GW IRRIGATION =           0.0000             GW IRRIGATION =           0.0000
           SW IRRIGATION =           0.0000             SW IRRIGATION =           0.0000
        SYSTEM LOSSES GW =           0.0000          SYSTEM LOSSES GW =           0.0000
        SYSTEM LOSSES SW =           0.0000          SYSTEM LOSSES SW =           0.0000

                TOTAL IN =      116362.6953                  TOTAL IN =           1.3273

          OUT:                                     OUT:
          ----                                     ----
               AG WELLS  =           0.0000                 AG WELLS  =           0.0000
      DIVERSION SEGMENTS =           0.0000        DIVERSION SEGMENTS =           0.0000
           GW IRRIGATION =      116362.6953             GW IRRIGATION =           1.3273
           SW IRRIGATION =           0.0000             SW IRRIGATION =           0.0000
        SYSTEM LOSSES GW =           0.0000          SYSTEM LOSSES GW =           0.0000
        SYSTEM LOSSES SW =           0.0000          SYSTEM LOSSES SW =           0.0000

               TOTAL OUT =      116362.6953                 TOTAL OUT =           1.3273

                IN - OUT =           0.0000                  IN - OUT =           0.0000

     PERCENT DISCREPANCY =           0.00         PERCENT DISCREPANCY =           0.00



1
  VOLUMETRIC BUDGET FOR ENTIRE MODEL AT END OF TIME STEP    2, STRESS PERIOD   5
  ------------------------------------------------------------------------------

     CUMULATIVE VOLUMES      L**3       RATES FOR THIS TIME STEP      L**3/T
     ------------------                 ------------------------

           IN:                                      IN:
           ---                                      ---
             STORAGE     =     4977416.5000               STORAGE     =           4.5544
       CONSTANT HEAD     =           0.0000         CONSTANT HEAD     =           0.0000
     HEAD DEP BOUNDS     =     2326674.0000       HEAD DEP BOUNDS     =           0.2855
      STREAM LEAKAGE     =   101009200.0000        STREAM LEAKAGE     =          11.6071
        UZF RECHARGE     =       73223.9531          UZF RECHARGE     =           0.0000
               GW ET     =           0.0000                 GW ET     =           0.0000
     SURFACE LEAKAGE     =           0.0000       SURFACE LEAKAGE     =           0.0000
           AG WELLS      =           0.0000             AG WELLS      =           0.0000

                TOTAL IN =   108386512.0000                  TOTAL IN =          16.4469

          OUT:                                     OUT:
          ----                                     ----
             STORAGE     =    22651896.0000               STORAGE     =           1.5325
       CONSTANT HEAD     =           0.0000         CONSTANT HEAD     =           0.0000
     HEAD DEP BOUNDS     =     2379787.2500       HEAD DEP BOUNDS     =           0.2969
      STREAM LEAKAGE     =    83243624.0000        STREAM LEAKAGE     =          13.2902
        UZF RECHARGE     =           0.0000          UZF RECHARGE     =           0.0000
               GW ET     =       3.7032E-05                 GW ET     =       3.2363E-10
     SURFACE LEAKAGE     =           0.0000       SURFACE LEAKAGE     =           0.0000
           AG WELLS      =      116362.6953             AG WELLS      =           1.3273

               TOTAL OUT =   108391672.0000                 TOTAL OUT =          16.4469

                IN - OUT =       -5160.0000                  IN - OUT =       1.9073E-06

     PERCENT DISCREPANCY =          -0.00         PERCENT DISCREPANCY =           0.00






         TIME SUMMARY AT END OF TIME STEP    2 IN STRESS PERIOD    5
                    SECONDS     MINUTES      HOURS       DAYS        YEARS
                    -----------------------------------------------------------
   TIME STEP LENGTH  87667.      1461.1      24.352      1.0147     2.77799E-03
 STRESS PERIOD TIME 1.75333E+05  2922.2      48.704      2.0293     5.55598E-03
         TOTAL TIME 8.15173E+06 1.35862E+05  2264.4      94.349     0.25831    
1
 
 SOLVING FOR HEAD 
                                                   Max.-Head-Change                         Max.-Flux-Residual
  Residual-Control   Outer-Iter.   Inner-Iter.     Column Row Layer    Maximum-Head-Change  Column Row Layer    Maximum-Flux-Residual          L2-NORM 
          0                 1           2             2   13     1      -0.1334906075E-01       4   13    1        -0.7609328129E+00      0.1617230573E+01
          0                 2           2             4   13     1       0.1277072342E-02       4   13    1         0.7545601199E-01      0.1571489616E+00
          0                 3           2             4    8     1      -0.7307274565E-02       4    7    1        -0.4144272293E+00      0.5861646658E+00
          0                 4           2             4    8     1       0.2907608424E-03       4    7    1         0.1695004337E-01      0.2397242433E-01
          0                 5           1             4    8     1      -0.3585211132E-05       4    7    1        -0.2148093643E-03      0.3040155621E-03

    ------------------------------------------------
       NWT REQUIRED            5 OUTER ITERATIONS 
       AND A TOTAL OF          9 INNER ITERATIONS.
    ------------------------------------------------

 OUTPUT CONTROL FOR STRESS PERIOD    5   TIME STEP    3
    PRINT BUDGET
    SAVE BUDGET
 UBDSV1 SAVING "         STORAGE" ON UNIT 102 AT TIME STEP  3, STRESS PERIOD   5
 UBDSV2 SAVING "   CONSTANT HEAD" ON UNIT 102 AT TIME STEP  3, STRESS PERIOD   5
 UBDSV1 SAVING "FLOW RIGHT FACE " ON UNIT 102 AT TIME STEP  3, STRESS PERIOD   5
 UBDSV1 SAVING "FLOW FRONT FACE " ON UNIT 102 AT TIME STEP  3, STRESS PERIOD   5

  HEAD DEP BOUNDS   PERIOD    5   STEP     3
 BOUNDARY      1   LAYER   1   ROW    13   COL     1   RATE   -0.296641    
 BOUNDARY      2   LAYER   1   ROW    14   COL     9   RATE    0.285472    



 STREAM LISTING     PERIOD      5   STEP        3

 LAYER ROW COL. STREAM  RCH.  FLOW INTO     FLOW TO   FLOW OUT OF   OVRLND.     DIRECT     STREAM       STREAM     STREAM     STREAM   STREAMBED  STREAMBED
                SEG.NO.  NO.  STRM. RCH.    AQUIFER    STRM. RCH.    RUNOFF     PRECIP       ET          HEAD       DEPTH      WIDTH   CONDCTNC.   GRADIENT

   1    1    1     1     1    2.8000E+01  2.5860E-01   2.7741E+01  0.000E+00  0.000E+00  0.000E+00  1.09427E+03  1.221E+00  1.361E+01  6.126E-02  1.407E+00
   1    2    2     1     2    2.7741E+01  4.0002E-01   2.7341E+01  0.000E+00  0.000E+00  0.000E+00  1.08928E+03  1.217E+00  1.355E+01  9.487E-02  1.406E+00
   1    3    3     1     3    2.7341E+01  3.4070E-01   2.7001E+01  0.000E+00  0.000E+00  0.000E+00  1.08363E+03  1.212E+00  1.348E+01  8.090E-02  1.404E+00
   1    3    4     1     4    2.7001E+01  3.1335E-01   2.6687E+01  0.000E+00  0.000E+00  0.000E+00  1.07861E+03  1.207E+00  1.342E+01  7.448E-02  1.402E+00
   1    4    5     2     1    2.4687E+01  3.2711E-01   2.4360E+01  0.000E+00  0.000E+00  0.000E+00  1.07313E+03  1.194E+00  1.200E+01  7.800E-02  1.398E+00
   1    5    6     2     2    2.4360E+01  2.5111E-01   2.4109E+01  0.000E+00  0.000E+00  0.000E+00  1.06769E+03  1.185E+00  1.200E+01  6.000E-02  1.395E+00
   1    6    6     2     3    2.4109E+01  2.5067E-01   2.3858E+01  0.000E+00  0.000E+00  0.000E+00  1.06297E+03  1.178E+00  1.200E+01  6.000E-02  1.393E+00
   1    7    6     2     4    2.3858E+01  2.5023E-01   2.3608E+01  0.000E+00  0.000E+00  0.000E+00  1.05825E+03  1.170E+00  1.200E+01  6.000E-02  1.390E+00
   1    8    6     2     5    2.3608E+01  2.4978E-01   2.3358E+01  0.000E+00  0.000E+00  0.000E+00  1.05352E+03  1.163E+00  1.200E+01  6.000E-02  1.388E+00
   1    3    5     3     1    2.0000E+00  2.8252E-01   1.7175E+00  0.000E+00  0.000E+00  0.000E+00  1.07555E+03  1.909E+00  9.636E+00  7.227E-02  1.955E+00
   1    3    6     3     2    1.7175E+00  2.4905E-01   1.4684E+00  0.000E+00  0.000E+00  0.000E+00  1.07264E+03  1.727E+00  8.909E+00  6.682E-02  1.864E+00
   1    3    7     3     3    1.4684E+00  1.9718E-01   1.2712E+00  0.000E+00  0.000E+00  0.000E+00  1.06987E+03  1.555E+00  8.218E+00  5.547E-02  1.777E+00
   1    4    8     3     4    1.2712E+00  2.2567E-01   1.0456E+00  0.000E+00  0.000E+00  0.000E+00  1.06682E+03  1.364E+00  7.455E+00  6.709E-02  1.682E+00
   1    5    8     3     5    1.0456E+00  1.5790E-01   8.8768E-01  0.000E+00  0.000E+00  0.000E+00  1.06362E+03  1.164E+00  6.655E+00  4.991E-02  1.582E+00
   1    6    8     3     6    8.8768E-01  5.5980E-02   8.3170E-01  0.000E+00  0.000E+00  0.000E+00  1.06158E+03  1.036E+00  6.145E+00  1.844E-02  1.518E+00
   1    5   10     4     1    1.0000E+01  9.0919E-02   9.9091E+00  0.000E+00  0.000E+00  0.000E+00  1.07836E+03  6.368E-01  1.000E+01  2.500E-02  1.212E+00
   1    5    9     4     2    9.9091E+00  1.8158E-01   9.7275E+00  0.000E+00  0.000E+00  0.000E+00  1.07154E+03  6.315E-01  1.000E+01  5.000E-02  1.211E+00
   1    6    8     4     3    9.7275E+00  1.2689E-01   9.6006E+00  0.000E+00  0.000E+00  0.000E+00  1.06381E+03  6.256E-01  1.000E+01  3.500E-02  1.209E+00
   1    6    8     5     1    1.0432E+01  2.2686E-01   1.0205E+01  0.000E+00  0.000E+00  0.000E+00  1.05868E+03  6.790E-01  1.542E+01  6.166E-02  1.226E+00
   1    7    7     5     2    1.0205E+01  2.7894E-01   9.9265E+00  0.000E+00  0.000E+00  0.000E+00  1.05417E+03  6.732E-01  1.519E+01  7.594E-02  1.224E+00
   1    8    7     5     3    9.9265E+00  1.9221E-01   9.7343E+00  0.000E+00  0.000E+00  0.000E+00  1.04992E+03  6.676E-01  1.497E+01  5.241E-02  1.223E+00
   1    8    6     5     4    9.7343E+00  1.3577E-01   9.5985E+00  0.000E+00  0.000E+00  0.000E+00  1.04691E+03  6.637E-01  1.482E+01  3.706E-02  1.221E+00
   1    9    6     6     1    3.2957E+01  2.6627E-01   3.2691E+01  0.000E+00  0.000E+00  0.000E+00  1.04417E+03  1.438E+00  1.200E+01  6.000E-02  1.479E+00
   1   10    7     6     2    3.2691E+01  2.6584E-01   3.2425E+01  0.000E+00  0.000E+00  0.000E+00  1.03961E+03  1.431E+00  1.200E+01  6.000E-02  1.477E+00
   1   11    7     6     3    3.2425E+01  2.6542E-01   3.2159E+01  0.000E+00  0.000E+00  0.000E+00  1.03506E+03  1.424E+00  1.200E+01  6.000E-02  1.475E+00
   1   12    7     6     4    3.2159E+01  2.6500E-01   3.1894E+01  0.000E+00  0.000E+00  0.000E+00  1.03051E+03  1.417E+00  1.200E+01  6.000E-02  1.472E+00
   1   13    7     6     5    3.1894E+01  3.4885E-03   3.1891E+01  0.000E+00  0.000E+00  0.000E+00  1.02732E+03  1.413E+00  1.200E+01  2.400E-02  4.845E-02
   1   14    9     7     1    1.5000E+02  1.3316E+00   1.4867E+02  0.000E+00  0.000E+00  0.000E+00  1.03987E+03  2.288E+00  5.529E+01  5.593E-01  7.936E-01
   1   13    8     7     2    1.4867E+02  1.8143E+00   1.4685E+02  0.000E+00  0.000E+00  0.000E+00  1.03478E+03  2.279E+00  5.526E+01  6.148E-01  9.837E-01
   1   13    7     7     3    1.4685E+02  1.4036E+00   1.4545E+02  0.000E+00  0.000E+00  0.000E+00  1.02969E+03  2.271E+00  5.522E+01  5.585E-01  8.377E-01
   1   13    6     8     1    1.7734E+02  8.5686E-01   1.7648E+02  0.000E+00  0.000E+00  0.000E+00  1.02487E+03  2.997E+00  4.345E+01  4.428E-01  6.451E-01
   1   13    5     8     2    1.7648E+02  9.2381E-02   1.7639E+02  0.000E+00  0.000E+00  0.000E+00  1.01862E+03  2.994E+00  4.341E+01  4.423E-01  6.962E-02
   1   13    4     8     3    1.7639E+02 -3.2095E+00   1.7960E+02  0.000E+00  0.000E+00  0.000E+00  1.01238E+03  3.004E+00  4.355E+01  4.438E+00 -2.411E-01
   1   13    3     8     4    1.7960E+02 -4.3169E+00   1.8392E+02  0.000E+00  0.000E+00  0.000E+00  1.00615E+03  3.027E+00  4.389E+01  4.473E+00 -3.217E-01
   1   13    2     8     5    1.8392E+02 -3.2453E+00   1.8716E+02  0.000E+00  0.000E+00  0.000E+00  9.99926E+02  3.051E+00  4.423E+01  4.508E+00 -2.400E-01
   1   13    1     8     6    1.8716E+02 -2.3486E+00   1.8951E+02  0.000E+00  0.000E+00  0.000E+00  9.94943E+02  3.068E+00  4.448E+01  2.720E+00 -2.878E-01



 UBDSV3 SAVING "           GW ET" ON UNIT  61 AT TIME STEP  3, STRESS PERIOD   5
 UBDSV3 SAVING "    UZF RECHARGE" ON UNIT  61 AT TIME STEP  3, STRESS PERIOD   5
 UBDSV3 SAVING " SURFACE LEAKAGE" ON UNIT  61 AT TIME STEP  3, STRESS PERIOD   5
 UBDSV3 SAVING "       HORT+DUNN" ON UNIT  61 AT TIME STEP  3, STRESS PERIOD   5
 UBDSV3 SAVING "  STORAGE CHANGE" ON UNIT  61 AT TIME STEP  3, STRESS PERIOD   5


UNSATURATED ZONE PACKAGE VOLUMETRIC BUDGET FOR  TIME STEP     3 STRESS PERIOD    5
  ------------------------------------------------------------------------------



     CUMULATIVE VOLUMES      L**3       RATES FOR THIS TIME STEP      L**3/T
     ------------------                 ------------------------

           IN:                                      IN:
           ---                                      ---
        INFILTRATION =    36343917.3831          INFILTRATION =           6.9168

          OUT:                                     OUT:
          ----                                     ----
              UZF ET =    13133705.6096                UZF ET =          23.0593
        UZF RECHARGE =       73224.0000          UZF RECHARGE =       0.0000E+00

            IN - OUT =    23136987.7734              IN - OUT =         -16.1425

          STORAGE:                                 STORAGE:
          --------                                 --------
      STORAGE CHANGE =    23136987.4483        STORAGE CHANGE =         -16.1425

 PERCENT DISCREPANCY IS DIFFERENCE BETWEEN IN-OUT MINUS CHANGE IN STORAGE
 DIVIDED BY THE AVERAGE OF IN AND OUT TIMES 100

 PERCENT DISCREPANCY =           0.00     PERCENT DISCREPANCY =           0.00






 

            AG WELLS      PERIOD    5   STEP   3
 AG WELL      1   LAYER   1   ROW     6   COL     4   RATE   -0.561400    
 AG WELL      2   LAYER   1   ROW     6   COL     5   RATE   -0.587500    
 AG WELL      3   LAYER   1   ROW     7   COL     4   RATE   -0.678800    
 AG WELL      4   LAYER   1   ROW     7   COL     5   RATE   -2.829738E-03
 AG WELL      5   LAYER   1   ROW     8   COL     4   RATE   -0.678800    
 AG WELL      6   LAYER   1   ROW     8   COL     5   RATE     0.00000    
 
 

        GW IRRIGATION     PERIOD    5   STEP   3
 AG WELL      1   ROW     6   COL     4   RATE    0.561400    
 AG WELL      2   ROW     6   COL     5   RATE    0.587500    
 AG WELL      3   ROW     7   COL     4   RATE    0.678800    
 AG WELL      4   ROW     7   COL     5   RATE    2.829738E-03
 AG WELL      5   ROW     8   COL     4   RATE    0.678800    
 AG WELL      6   ROW     8   COL     5   RATE     0.00000    
 
1
  VOLUMETRIC BUDGET FOR ENTIRE MODEL AT END OF TIME STEP    3, STRESS PERIOD   5
  ------------------------------------------------------------------------------

     CUMULATIVE VOLUMES      L**3       RATES FOR THIS TIME STEP      L**3/T
     ------------------                 ------------------------

           IN:                                      IN:
           ---                                      ---
               AG WELLS  =      336347.2500                 AG WELLS  =           2.5093
      DIVERSION SEGMENTS =           0.0000        DIVERSION SEGMENTS =           0.0000
           GW IRRIGATION =           0.0000             GW IRRIGATION =           0.0000
           SW IRRIGATION =           0.0000             SW IRRIGATION =           0.0000
        SYSTEM LOSSES GW =           0.0000          SYSTEM LOSSES GW =           0.0000
        SYSTEM LOSSES SW =           0.0000          SYSTEM LOSSES SW =           0.0000

                TOTAL IN =      336347.2500                  TOTAL IN =           2.5093

          OUT:                                     OUT:
          ----                                     ----
               AG WELLS  =           0.0000                 AG WELLS  =           0.0000
      DIVERSION SEGMENTS =           0.0000        DIVERSION SEGMENTS =           0.0000
           GW IRRIGATION =      336347.2500             GW IRRIGATION =           2.5093
           SW IRRIGATION =           0.0000             SW IRRIGATION =           0.0000
        SYSTEM LOSSES GW =           0.0000          SYSTEM LOSSES GW =           0.0000
        SYSTEM LOSSES SW =           0.0000          SYSTEM LOSSES SW =           0.0000

               TOTAL OUT =      336347.2500                 TOTAL OUT =           2.5093

                IN - OUT =           0.0000                  IN - OUT =           0.0000

     PERCENT DISCREPANCY =           0.00         PERCENT DISCREPANCY =           0.00



1
  VOLUMETRIC BUDGET FOR ENTIRE MODEL AT END OF TIME STEP    3, STRESS PERIOD   5
  ------------------------------------------------------------------------------

     CUMULATIVE VOLUMES      L**3       RATES FOR THIS TIME STEP      L**3/T
     ------------------                 ------------------------

           IN:                                      IN:
           ---                                      ---
             STORAGE     =     5457276.5000               STORAGE     =           5.4737
       CONSTANT HEAD     =           0.0000         CONSTANT HEAD     =           0.0000
     HEAD DEP BOUNDS     =     2351700.5000       HEAD DEP BOUNDS     =           0.2855
      STREAM LEAKAGE     =   102026816.0000        STREAM LEAKAGE     =          11.6078
        UZF RECHARGE     =       73223.9531          UZF RECHARGE     =           0.0000
               GW ET     =           0.0000                 GW ET     =           0.0000
     SURFACE LEAKAGE     =           0.0000       SURFACE LEAKAGE     =           0.0000
           AG WELLS      =           0.0000             AG WELLS      =           0.0000

                TOTAL IN =   109909016.0000                  TOTAL IN =          17.3670

          OUT:                                     OUT:
          ----                                     ----
             STORAGE     =    22778060.0000               STORAGE     =           1.4391
       CONSTANT HEAD     =           0.0000         CONSTANT HEAD     =           0.0000
     HEAD DEP BOUNDS     =     2405792.7500       HEAD DEP BOUNDS     =           0.2966
      STREAM LEAKAGE     =    84393840.0000        STREAM LEAKAGE     =          13.1203
        UZF RECHARGE     =           0.0000          UZF RECHARGE     =           0.0000
               GW ET     =         138.9277                 GW ET     =       1.5847E-03
     SURFACE LEAKAGE     =           0.0000       SURFACE LEAKAGE     =           0.0000
           AG WELLS      =      336347.2500             AG WELLS      =           2.5093

               TOTAL OUT =   109914176.0000                 TOTAL OUT =          17.3670

                IN - OUT =       -5160.0000                  IN - OUT =      -1.9073E-06

     PERCENT DISCREPANCY =          -0.00         PERCENT DISCREPANCY =          -0.00






         TIME SUMMARY AT END OF TIME STEP    3 IN STRESS PERIOD    5
                    SECONDS     MINUTES      HOURS       DAYS        YEARS
                    -----------------------------------------------------------
   TIME STEP LENGTH  87667.      1461.1      24.352      1.0147     2.77799E-03
 STRESS PERIOD TIME 2.63000E+05  4383.3      73.056      3.0440     8.33397E-03
         TOTAL TIME 8.23939E+06 1.37323E+05  2288.7      95.363     0.26109    
1
 
 SOLVING FOR HEAD 
                                                   Max.-Head-Change                         Max.-Flux-Residual
  Residual-Control   Outer-Iter.   Inner-Iter.     Column Row Layer    Maximum-Head-Change  Column Row Layer    Maximum-Flux-Residual          L2-NORM 
          0                 1           2             4   13     1      -0.1375206549E-01       4   13    1        -0.8039500510E+00      0.1718717475E+01
          0                 2           2             4   13     1       0.1326456508E-02       4   13    1         0.7972943112E-01      0.1676573059E+00
          0                 3           2             4    8     1      -0.1806658171E-02       4    7    1        -0.1025156787E+00      0.1453787811E+00
          0                 4           2             4    8     1      -0.3986149637E-01       4    8    1        -0.2260547207E+01      0.3196894702E+01
          0                 5           2             4    8     1       0.1586451626E-02       4    8    1         0.9247441626E-01      0.1307753407E+00
          0                 6           1             4    7     1      -0.2023995570E-04       4    7    1        -0.1217459170E-02      0.1691079506E-02

    ------------------------------------------------
       NWT REQUIRED            6 OUTER ITERATIONS 
       AND A TOTAL OF         11 INNER ITERATIONS.
    ------------------------------------------------

 OUTPUT CONTROL FOR STRESS PERIOD    5   TIME STEP    4
    PRINT BUDGET
    SAVE BUDGET
 UBDSV1 SAVING "         STORAGE" ON UNIT 102 AT TIME STEP  4, STRESS PERIOD   5
 UBDSV2 SAVING "   CONSTANT HEAD" ON UNIT 102 AT TIME STEP  4, STRESS PERIOD   5
 UBDSV1 SAVING "FLOW RIGHT FACE " ON UNIT 102 AT TIME STEP  4, STRESS PERIOD   5
 UBDSV1 SAVING "FLOW FRONT FACE " ON UNIT 102 AT TIME STEP  4, STRESS PERIOD   5

  HEAD DEP BOUNDS   PERIOD    5   STEP     4
 BOUNDARY      1   LAYER   1   ROW    13   COL     1   RATE   -0.296396    
 BOUNDARY      2   LAYER   1   ROW    14   COL     9   RATE    0.285473    



 STREAM LISTING     PERIOD      5   STEP        4

 LAYER ROW COL. STREAM  RCH.  FLOW INTO     FLOW TO   FLOW OUT OF   OVRLND.     DIRECT     STREAM       STREAM     STREAM     STREAM   STREAMBED  STREAMBED
                SEG.NO.  NO.  STRM. RCH.    AQUIFER    STRM. RCH.    RUNOFF     PRECIP       ET          HEAD       DEPTH      WIDTH   CONDCTNC.   GRADIENT

   1    1    1     1     1    2.8000E+01  2.5860E-01   2.7741E+01  0.000E+00  0.000E+00  0.000E+00  1.09427E+03  1.221E+00  1.361E+01  6.126E-02  1.407E+00
   1    2    2     1     2    2.7741E+01  4.0002E-01   2.7341E+01  0.000E+00  0.000E+00  0.000E+00  1.08928E+03  1.217E+00  1.355E+01  9.487E-02  1.406E+00
   1    3    3     1     3    2.7341E+01  3.4070E-01   2.7001E+01  0.000E+00  0.000E+00  0.000E+00  1.08363E+03  1.212E+00  1.348E+01  8.090E-02  1.404E+00
   1    3    4     1     4    2.7001E+01  3.1335E-01   2.6687E+01  0.000E+00  0.000E+00  0.000E+00  1.07861E+03  1.207E+00  1.342E+01  7.448E-02  1.402E+00
   1    4    5     2     1    2.4687E+01  3.2711E-01   2.4360E+01  0.000E+00  0.000E+00  0.000E+00  1.07313E+03  1.194E+00  1.200E+01  7.800E-02  1.398E+00
   1    5    6     2     2    2.4360E+01  2.5111E-01   2.4109E+01  0.000E+00  0.000E+00  0.000E+00  1.06769E+03  1.185E+00  1.200E+01  6.000E-02  1.395E+00
   1    6    6     2     3    2.4109E+01  2.5067E-01   2.3858E+01  0.000E+00  0.000E+00  0.000E+00  1.06297E+03  1.178E+00  1.200E+01  6.000E-02  1.393E+00
   1    7    6     2     4    2.3858E+01  2.5023E-01   2.3608E+01  0.000E+00  0.000E+00  0.000E+00  1.05825E+03  1.170E+00  1.200E+01  6.000E-02  1.390E+00
   1    8    6     2     5    2.3608E+01  2.4978E-01   2.3358E+01  0.000E+00  0.000E+00  0.000E+00  1.05352E+03  1.163E+00  1.200E+01  6.000E-02  1.388E+00
   1    3    5     3     1    2.0000E+00  2.8252E-01   1.7175E+00  0.000E+00  0.000E+00  0.000E+00  1.07555E+03  1.909E+00  9.636E+00  7.227E-02  1.955E+00
   1    3    6     3     2    1.7175E+00  2.4905E-01   1.4684E+00  0.000E+00  0.000E+00  0.000E+00  1.07264E+03  1.727E+00  8.909E+00  6.682E-02  1.864E+00
   1    3    7     3     3    1.4684E+00  1.9718E-01   1.2712E+00  0.000E+00  0.000E+00  0.000E+00  1.06987E+03  1.555E+00  8.218E+00  5.547E-02  1.777E+00
   1    4    8     3     4    1.2712E+00  2.2567E-01   1.0456E+00  0.000E+00  0.000E+00  0.000E+00  1.06682E+03  1.364E+00  7.455E+00  6.709E-02  1.682E+00
   1    5    8     3     5    1.0456E+00  1.5790E-01   8.8768E-01  0.000E+00  0.000E+00  0.000E+00  1.06362E+03  1.164E+00  6.655E+00  4.991E-02  1.582E+00
   1    6    8     3     6    8.8768E-01  5.5980E-02   8.3170E-01  0.000E+00  0.000E+00  0.000E+00  1.06158E+03  1.036E+00  6.145E+00  1.844E-02  1.518E+00
   1    5   10     4     1    1.0000E+01  9.0919E-02   9.9091E+00  0.000E+00  0.000E+00  0.000E+00  1.07836E+03  6.368E-01  1.000E+01  2.500E-02  1.212E+00
   1    5    9     4     2    9.9091E+00  1.8158E-01   9.7275E+00  0.000E+00  0.000E+00  0.000E+00  1.07154E+03  6.315E-01  1.000E+01  5.000E-02  1.211E+00
   1    6    8     4     3    9.7275E+00  1.2689E-01   9.6006E+00  0.000E+00  0.000E+00  0.000E+00  1.06381E+03  6.256E-01  1.000E+01  3.500E-02  1.209E+00
   1    6    8     5     1    1.0432E+01  2.2686E-01   1.0205E+01  0.000E+00  0.000E+00  0.000E+00  1.05868E+03  6.790E-01  1.542E+01  6.166E-02  1.226E+00
   1    7    7     5     2    1.0205E+01  2.7894E-01   9.9265E+00  0.000E+00  0.000E+00  0.000E+00  1.05417E+03  6.732E-01  1.519E+01  7.594E-02  1.224E+00
   1    8    7     5     3    9.9265E+00  1.9221E-01   9.7343E+00  0.000E+00  0.000E+00  0.000E+00  1.04992E+03  6.676E-01  1.497E+01  5.241E-02  1.223E+00
   1    8    6     5     4    9.7343E+00  1.3577E-01   9.5985E+00  0.000E+00  0.000E+00  0.000E+00  1.04691E+03  6.637E-01  1.482E+01  3.706E-02  1.221E+00
   1    9    6     6     1    3.2957E+01  2.6627E-01   3.2691E+01  0.000E+00  0.000E+00  0.000E+00  1.04417E+03  1.438E+00  1.200E+01  6.000E-02  1.479E+00
   1   10    7     6     2    3.2691E+01  2.6584E-01   3.2425E+01  0.000E+00  0.000E+00  0.000E+00  1.03961E+03  1.431E+00  1.200E+01  6.000E-02  1.477E+00
   1   11    7     6     3    3.2425E+01  2.6542E-01   3.2159E+01  0.000E+00  0.000E+00  0.000E+00  1.03506E+03  1.424E+00  1.200E+01  6.000E-02  1.475E+00
   1   12    7     6     4    3.2159E+01  2.6500E-01   3.1894E+01  0.000E+00  0.000E+00  0.000E+00  1.03051E+03  1.417E+00  1.200E+01  6.000E-02  1.472E+00
   1   13    7     6     5    3.1894E+01  3.4784E-03   3.1891E+01  0.000E+00  0.000E+00  0.000E+00  1.02732E+03  1.413E+00  1.200E+01  2.400E-02  4.831E-02
   1   14    9     7     1    1.5000E+02  1.3316E+00   1.4867E+02  0.000E+00  0.000E+00  0.000E+00  1.03987E+03  2.288E+00  5.529E+01  5.593E-01  7.936E-01
   1   13    8     7     2    1.4867E+02  1.8142E+00   1.4685E+02  0.000E+00  0.000E+00  0.000E+00  1.03478E+03  2.279E+00  5.526E+01  6.148E-01  9.836E-01
   1   13    7     7     3    1.4685E+02  1.4033E+00   1.4545E+02  0.000E+00  0.000E+00  0.000E+00  1.02969E+03  2.271E+00  5.522E+01  5.585E-01  8.376E-01
   1   13    6     8     1    1.7734E+02  8.5754E-01   1.7648E+02  0.000E+00  0.000E+00  0.000E+00  1.02487E+03  2.997E+00  4.345E+01  4.428E-01  6.456E-01
   1   13    5     8     2    1.7648E+02  9.2861E-02   1.7639E+02  0.000E+00  0.000E+00  0.000E+00  1.01862E+03  2.994E+00  4.341E+01  4.423E-01  6.998E-02
   1   13    4     8     3    1.7639E+02 -3.1546E+00   1.7955E+02  0.000E+00  0.000E+00  0.000E+00  1.01238E+03  3.003E+00  4.355E+01  4.438E+00 -2.370E-01
   1   13    3     8     4    1.7955E+02 -4.2641E+00   1.8381E+02  0.000E+00  0.000E+00  0.000E+00  1.00615E+03  3.027E+00  4.389E+01  4.472E+00 -3.178E-01
   1   13    2     8     5    1.8381E+02 -3.1972E+00   1.8701E+02  0.000E+00  0.000E+00  0.000E+00  9.99925E+02  3.050E+00  4.422E+01  4.506E+00 -2.365E-01
   1   13    1     8     6    1.8701E+02 -2.3330E+00   1.8934E+02  0.000E+00  0.000E+00  0.000E+00  9.94942E+02  3.067E+00  4.447E+01  2.719E+00 -2.860E-01



 UBDSV3 SAVING "           GW ET" ON UNIT  61 AT TIME STEP  4, STRESS PERIOD   5
 UBDSV3 SAVING "    UZF RECHARGE" ON UNIT  61 AT TIME STEP  4, STRESS PERIOD   5
 UBDSV3 SAVING " SURFACE LEAKAGE" ON UNIT  61 AT TIME STEP  4, STRESS PERIOD   5
 UBDSV3 SAVING "       HORT+DUNN" ON UNIT  61 AT TIME STEP  4, STRESS PERIOD   5
 UBDSV3 SAVING "  STORAGE CHANGE" ON UNIT  61 AT TIME STEP  4, STRESS PERIOD   5


UNSATURATED ZONE PACKAGE VOLUMETRIC BUDGET FOR  TIME STEP     4 STRESS PERIOD    5
  ------------------------------------------------------------------------------



     CUMULATIVE VOLUMES      L**3       RATES FOR THIS TIME STEP      L**3/T
     ------------------                 ------------------------

           IN:                                      IN:
           ---                                      ---
        INFILTRATION =    37340430.2268          INFILTRATION =          11.3671

          OUT:                                     OUT:
          ----                                     ----
              UZF ET =    14558897.5520                UZF ET =          16.2569
        UZF RECHARGE =       73224.0000          UZF RECHARGE =       0.0000E+00

            IN - OUT =    22708308.6748              IN - OUT =          -4.8899

          STORAGE:                                 STORAGE:
          --------                                 --------
      STORAGE CHANGE =    22708308.3405        STORAGE CHANGE =          -4.8899

 PERCENT DISCREPANCY IS DIFFERENCE BETWEEN IN-OUT MINUS CHANGE IN STORAGE
 DIVIDED BY THE AVERAGE OF IN AND OUT TIMES 100

 PERCENT DISCREPANCY =           0.00     PERCENT DISCREPANCY =           0.00






 

            AG WELLS      PERIOD    5   STEP   4
 AG WELL      1   LAYER   1   ROW     6   COL     4   RATE   -0.571227    
 AG WELL      2   LAYER   1   ROW     6   COL     5   RATE   -0.555861    
 AG WELL      3   LAYER   1   ROW     7   COL     4   RATE    -2.62874    
 AG WELL      4   LAYER   1   ROW     7   COL     5   RATE   -0.575000    
 AG WELL      5   LAYER   1   ROW     8   COL     4   RATE    -2.62874    
 AG WELL      6   LAYER   1   ROW     8   COL     5   RATE     0.00000    
 
 

        GW IRRIGATION     PERIOD    5   STEP   4
 AG WELL      1   ROW     6   COL     4   RATE    0.571227    
 AG WELL      2   ROW     6   COL     5   RATE    0.555861    
 AG WELL      3   ROW     7   COL     4   RATE     2.62874    
 AG WELL      4   ROW     7   COL     5   RATE    0.575000    
 AG WELL      5   ROW     8   COL     4   RATE     2.62874    
 AG WELL      6   ROW     8   COL     5   RATE     0.00000    
 
1
  VOLUMETRIC BUDGET FOR ENTIRE MODEL AT END OF TIME STEP    4, STRESS PERIOD   5
  ------------------------------------------------------------------------------

     CUMULATIVE VOLUMES      L**3       RATES FOR THIS TIME STEP      L**3/T
     ------------------                 ------------------------

           IN:                                      IN:
           ---                                      ---
               AG WELLS  =      946469.2500                 AG WELLS  =           6.9596
      DIVERSION SEGMENTS =           0.0000        DIVERSION SEGMENTS =           0.0000
           GW IRRIGATION =           0.0000             GW IRRIGATION =           0.0000
           SW IRRIGATION =           0.0000             SW IRRIGATION =           0.0000
        SYSTEM LOSSES GW =           0.0000          SYSTEM LOSSES GW =           0.0000
        SYSTEM LOSSES SW =           0.0000          SYSTEM LOSSES SW =           0.0000

                TOTAL IN =      946469.2500                  TOTAL IN =           6.9596

          OUT:                                     OUT:
          ----                                     ----
               AG WELLS  =           0.0000                 AG WELLS  =           0.0000
      DIVERSION SEGMENTS =           0.0000        DIVERSION SEGMENTS =           0.0000
           GW IRRIGATION =      946469.2500             GW IRRIGATION =           6.9596
           SW IRRIGATION =           0.0000             SW IRRIGATION =           0.0000
        SYSTEM LOSSES GW =           0.0000          SYSTEM LOSSES GW =           0.0000
        SYSTEM LOSSES SW =           0.0000          SYSTEM LOSSES SW =           0.0000

               TOTAL OUT =      946469.2500                 TOTAL OUT =           6.9596

                IN - OUT =           0.0000                  IN - OUT =           0.0000

     PERCENT DISCREPANCY =           0.00         PERCENT DISCREPANCY =           0.00



1
  VOLUMETRIC BUDGET FOR ENTIRE MODEL AT END OF TIME STEP    4, STRESS PERIOD   5
  ------------------------------------------------------------------------------

     CUMULATIVE VOLUMES      L**3       RATES FOR THIS TIME STEP      L**3/T
     ------------------                 ------------------------

           IN:                                      IN:
           ---                                      ---
             STORAGE     =     6326371.0000               STORAGE     =           9.9136
       CONSTANT HEAD     =           0.0000         CONSTANT HEAD     =           0.0000
     HEAD DEP BOUNDS     =     2376727.0000       HEAD DEP BOUNDS     =           0.2855
      STREAM LEAKAGE     =   103044504.0000        STREAM LEAKAGE     =          11.6086
        UZF RECHARGE     =       73223.9531          UZF RECHARGE     =           0.0000
               GW ET     =           0.0000                 GW ET     =           0.0000
     SURFACE LEAKAGE     =           0.0000       SURFACE LEAKAGE     =           0.0000
           AG WELLS      =           0.0000             AG WELLS      =           0.0000

                TOTAL IN =   111820824.0000                  TOTAL IN =          21.8077

          OUT:                                     OUT:
          ----                                     ----
             STORAGE     =    22899110.0000               STORAGE     =           1.3808
       CONSTANT HEAD     =           0.0000         CONSTANT HEAD     =           0.0000
     HEAD DEP BOUNDS     =     2431776.7500       HEAD DEP BOUNDS     =           0.2964
      STREAM LEAKAGE     =    85529032.0000        STREAM LEAKAGE     =          12.9489
        UZF RECHARGE     =           0.0000          UZF RECHARGE     =           0.0000
               GW ET     =       19601.1367                 GW ET     =           0.2220
     SURFACE LEAKAGE     =           0.0000       SURFACE LEAKAGE     =           0.0000
           AG WELLS      =      946469.2500             AG WELLS      =           6.9596

               TOTAL OUT =   111825992.0000                 TOTAL OUT =          21.8077

                IN - OUT =       -5168.0000                  IN - OUT =      -3.0518E-05

     PERCENT DISCREPANCY =          -0.00         PERCENT DISCREPANCY =          -0.00






         TIME SUMMARY AT END OF TIME STEP    4 IN STRESS PERIOD    5
                    SECONDS     MINUTES      HOURS       DAYS        YEARS
                    -----------------------------------------------------------
   TIME STEP LENGTH  87667.      1461.1      24.352      1.0147     2.77799E-03
 STRESS PERIOD TIME 3.50667E+05  5844.4      97.407      4.0586     1.11120E-02
         TOTAL TIME 8.32706E+06 1.38784E+05  2313.1      96.378     0.26387    
1
 
 SOLVING FOR HEAD 
                                                   Max.-Head-Change                         Max.-Flux-Residual
  Residual-Control   Outer-Iter.   Inner-Iter.     Column Row Layer    Maximum-Head-Change  Column Row Layer    Maximum-Flux-Residual          L2-NORM 
          0                 1           2             4   13     1      -0.1223058228E-01       4   13    1        -0.7146976818E+00      0.1600885357E+01
          0                 2           2             4   13     1       0.1179613765E-02       4   13    1         0.7087269738E-01      0.1575907523E+00
          0                 3           1             4   13     1      -0.7852137916E-04       4   13    1        -0.4849922910E-02      0.1077558577E-01

    ------------------------------------------------
       NWT REQUIRED            3 OUTER ITERATIONS 
       AND A TOTAL OF          5 INNER ITERATIONS.
    ------------------------------------------------

 NO OUTPUT CONTROL FOR STRESS PERIOD    5   TIME STEP    5
 
 SOLVING FOR HEAD 
                                                   Max.-Head-Change                         Max.-Flux-Residual
  Residual-Control   Outer-Iter.   Inner-Iter.     Column Row Layer    Maximum-Head-Change  Column Row Layer    Maximum-Flux-Residual          L2-NORM 
          0                 1           2             4   13     1      -0.1088208112E-01       4   13    1        -0.6356146122E+00      0.1496982883E+01
          0                 2           2             4   13     1       0.1049510738E-02       4   13    1         0.6302780504E-01      0.1474717982E+00
          0                 3           1             4   13     1      -0.7065439025E-04       4   13    1        -0.4362542532E-02      0.1011659497E-01

    ------------------------------------------------
       NWT REQUIRED            3 OUTER ITERATIONS 
       AND A TOTAL OF          5 INNER ITERATIONS.
    ------------------------------------------------

 OUTPUT CONTROL FOR STRESS PERIOD    5   TIME STEP    6
    PRINT BUDGET
    SAVE BUDGET
 UBDSV1 SAVING "         STORAGE" ON UNIT 102 AT TIME STEP  6, STRESS PERIOD   5
 UBDSV2 SAVING "   CONSTANT HEAD" ON UNIT 102 AT TIME STEP  6, STRESS PERIOD   5
 UBDSV1 SAVING "FLOW RIGHT FACE " ON UNIT 102 AT TIME STEP  6, STRESS PERIOD   5
 UBDSV1 SAVING "FLOW FRONT FACE " ON UNIT 102 AT TIME STEP  6, STRESS PERIOD   5

  HEAD DEP BOUNDS   PERIOD    5   STEP     6
 BOUNDARY      1   LAYER   1   ROW    13   COL     1   RATE   -0.295933    
 BOUNDARY      2   LAYER   1   ROW    14   COL     9   RATE    0.285474    



 STREAM LISTING     PERIOD      5   STEP        6

 LAYER ROW COL. STREAM  RCH.  FLOW INTO     FLOW TO   FLOW OUT OF   OVRLND.     DIRECT     STREAM       STREAM     STREAM     STREAM   STREAMBED  STREAMBED
                SEG.NO.  NO.  STRM. RCH.    AQUIFER    STRM. RCH.    RUNOFF     PRECIP       ET          HEAD       DEPTH      WIDTH   CONDCTNC.   GRADIENT

   1    1    1     1     1    2.8000E+01  2.5860E-01   2.7742E+01  0.000E+00  0.000E+00  0.000E+00  1.09427E+03  1.221E+00  1.361E+01  6.126E-02  1.407E+00
   1    2    2     1     2    2.7742E+01  4.0002E-01   2.7341E+01  0.000E+00  0.000E+00  0.000E+00  1.08928E+03  1.217E+00  1.355E+01  9.487E-02  1.406E+00
   1    3    3     1     3    2.7341E+01  3.4070E-01   2.7001E+01  0.000E+00  0.000E+00  0.000E+00  1.08363E+03  1.212E+00  1.348E+01  8.090E-02  1.404E+00
   1    3    4     1     4    2.7001E+01  3.1335E-01   2.6687E+01  0.000E+00  0.000E+00  0.000E+00  1.07861E+03  1.207E+00  1.342E+01  7.448E-02  1.402E+00
   1    4    5     2     1    2.4687E+01  3.2711E-01   2.4360E+01  0.000E+00  0.000E+00  0.000E+00  1.07313E+03  1.194E+00  1.200E+01  7.800E-02  1.398E+00
   1    5    6     2     2    2.4360E+01  2.5111E-01   2.4109E+01  0.000E+00  0.000E+00  0.000E+00  1.06769E+03  1.185E+00  1.200E+01  6.000E-02  1.395E+00
   1    6    6     2     3    2.4109E+01  2.5067E-01   2.3859E+01  0.000E+00  0.000E+00  0.000E+00  1.06297E+03  1.178E+00  1.200E+01  6.000E-02  1.393E+00
   1    7    6     2     4    2.3859E+01  2.5023E-01   2.3608E+01  0.000E+00  0.000E+00  0.000E+00  1.05825E+03  1.170E+00  1.200E+01  6.000E-02  1.390E+00
   1    8    6     2     5    2.3608E+01  2.4978E-01   2.3359E+01  0.000E+00  0.000E+00  0.000E+00  1.05352E+03  1.163E+00  1.200E+01  6.000E-02  1.388E+00
   1    3    5     3     1    2.0000E+00  2.8252E-01   1.7175E+00  0.000E+00  0.000E+00  0.000E+00  1.07555E+03  1.909E+00  9.636E+00  7.227E-02  1.955E+00
   1    3    6     3     2    1.7175E+00  2.4905E-01   1.4684E+00  0.000E+00  0.000E+00  0.000E+00  1.07264E+03  1.727E+00  8.909E+00  6.682E-02  1.864E+00
   1    3    7     3     3    1.4684E+00  1.9718E-01   1.2712E+00  0.000E+00  0.000E+00  0.000E+00  1.06987E+03  1.555E+00  8.218E+00  5.547E-02  1.777E+00
   1    4    8     3     4    1.2712E+00  2.2567E-01   1.0456E+00  0.000E+00  0.000E+00  0.000E+00  1.06682E+03  1.364E+00  7.455E+00  6.709E-02  1.682E+00
   1    5    8     3     5    1.0456E+00  1.5790E-01   8.8768E-01  0.000E+00  0.000E+00  0.000E+00  1.06362E+03  1.164E+00  6.655E+00  4.991E-02  1.582E+00
   1    6    8     3     6    8.8768E-01  5.5980E-02   8.3170E-01  0.000E+00  0.000E+00  0.000E+00  1.06158E+03  1.036E+00  6.145E+00  1.844E-02  1.518E+00
   1    5   10     4     1    1.0000E+01  9.0919E-02   9.9091E+00  0.000E+00  0.000E+00  0.000E+00  1.07836E+03  6.368E-01  1.000E+01  2.500E-02  1.212E+00
   1    5    9     4     2    9.9091E+00  1.8158E-01   9.7275E+00  0.000E+00  0.000E+00  0.000E+00  1.07154E+03  6.315E-01  1.000E+01  5.000E-02  1.211E+00
   1    6    8     4     3    9.7275E+00  1.2689E-01   9.6006E+00  0.000E+00  0.000E+00  0.000E+00  1.06381E+03  6.256E-01  1.000E+01  3.500E-02  1.209E+00
   1    6    8     5     1    1.0432E+01  2.2686E-01   1.0205E+01  0.000E+00  0.000E+00  0.000E+00  1.05868E+03  6.790E-01  1.542E+01  6.166E-02  1.226E+00
   1    7    7     5     2    1.0205E+01  2.7894E-01   9.9265E+00  0.000E+00  0.000E+00  0.000E+00  1.05417E+03  6.732E-01  1.519E+01  7.594E-02  1.224E+00
   1    8    7     5     3    9.9265E+00  1.9221E-01   9.7343E+00  0.000E+00  0.000E+00  0.000E+00  1.04992E+03  6.676E-01  1.497E+01  5.241E-02  1.223E+00
   1    8    6     5     4    9.7343E+00  1.3577E-01   9.5985E+00  0.000E+00  0.000E+00  0.000E+00  1.04691E+03  6.637E-01  1.482E+01  3.706E-02  1.221E+00
   1    9    6     6     1    3.2957E+01  2.6627E-01   3.2691E+01  0.000E+00  0.000E+00  0.000E+00  1.04417E+03  1.438E+00  1.200E+01  6.000E-02  1.479E+00
   1   10    7     6     2    3.2691E+01  2.6585E-01   3.2425E+01  0.000E+00  0.000E+00  0.000E+00  1.03961E+03  1.431E+00  1.200E+01  6.000E-02  1.477E+00
   1   11    7     6     3    3.2425E+01  2.6542E-01   3.2160E+01  0.000E+00  0.000E+00  0.000E+00  1.03506E+03  1.424E+00  1.200E+01  6.000E-02  1.475E+00
   1   12    7     6     4    3.2160E+01  2.6500E-01   3.1895E+01  0.000E+00  0.000E+00  0.000E+00  1.03051E+03  1.417E+00  1.200E+01  6.000E-02  1.472E+00
   1   13    7     6     5    3.1895E+01  3.4601E-03   3.1891E+01  0.000E+00  0.000E+00  0.000E+00  1.02732E+03  1.413E+00  1.200E+01  2.400E-02  4.806E-02
   1   14    9     7     1    1.5000E+02  1.3316E+00   1.4867E+02  0.000E+00  0.000E+00  0.000E+00  1.03987E+03  2.288E+00  5.529E+01  5.593E-01  7.936E-01
   1   13    8     7     2    1.4867E+02  1.8139E+00   1.4685E+02  0.000E+00  0.000E+00  0.000E+00  1.03478E+03  2.279E+00  5.526E+01  6.148E-01  9.835E-01
   1   13    7     7     3    1.4685E+02  1.4029E+00   1.4545E+02  0.000E+00  0.000E+00  0.000E+00  1.02969E+03  2.271E+00  5.522E+01  5.585E-01  8.374E-01
   1   13    6     8     1    1.7734E+02  8.5881E-01   1.7648E+02  0.000E+00  0.000E+00  0.000E+00  1.02487E+03  2.997E+00  4.345E+01  4.428E-01  6.465E-01
   1   13    5     8     2    1.7648E+02  9.3925E-02   1.7639E+02  0.000E+00  0.000E+00  0.000E+00  1.01862E+03  2.994E+00  4.341E+01  4.423E-01  7.078E-02
   1   13    4     8     3    1.7639E+02 -3.0623E+00   1.7945E+02  0.000E+00  0.000E+00  0.000E+00  1.01238E+03  3.003E+00  4.354E+01  4.437E+00 -2.300E-01
   1   13    3     8     4    1.7945E+02 -4.1735E+00   1.8363E+02  0.000E+00  0.000E+00  0.000E+00  1.00615E+03  3.026E+00  4.387E+01  4.471E+00 -3.112E-01
   1   13    2     8     5    1.8363E+02 -3.1114E+00   1.8674E+02  0.000E+00  0.000E+00  0.000E+00  9.99923E+02  3.048E+00  4.420E+01  4.504E+00 -2.303E-01
   1   13    1     8     6    1.8674E+02 -2.3033E+00   1.8904E+02  0.000E+00  0.000E+00  0.000E+00  9.94940E+02  3.065E+00  4.444E+01  2.717E+00 -2.825E-01



 UBDSV3 SAVING "           GW ET" ON UNIT  61 AT TIME STEP  6, STRESS PERIOD   5
 UBDSV3 SAVING "    UZF RECHARGE" ON UNIT  61 AT TIME STEP  6, STRESS PERIOD   5
 UBDSV3 SAVING " SURFACE LEAKAGE" ON UNIT  61 AT TIME STEP  6, STRESS PERIOD   5
 UBDSV3 SAVING "       HORT+DUNN" ON UNIT  61 AT TIME STEP  6, STRESS PERIOD   5
 UBDSV3 SAVING "  STORAGE CHANGE" ON UNIT  61 AT TIME STEP  6, STRESS PERIOD   5


UNSATURATED ZONE PACKAGE VOLUMETRIC BUDGET FOR  TIME STEP     6 STRESS PERIOD    5
  ------------------------------------------------------------------------------



     CUMULATIVE VOLUMES      L**3       RATES FOR THIS TIME STEP      L**3/T
     ------------------                 ------------------------

           IN:                                      IN:
           ---                                      ---
        INFILTRATION =    38411257.9456          INFILTRATION =           6.1155

          OUT:                                     OUT:
          ----                                     ----
              UZF ET =    17406713.8586                UZF ET =          16.2416
        UZF RECHARGE =       73224.0000          UZF RECHARGE =       0.0000E+00

            IN - OUT =    20931320.0869              IN - OUT =         -10.1261

          STORAGE:                                 STORAGE:
          --------                                 --------
      STORAGE CHANGE =    20931352.0801        STORAGE CHANGE =         -10.1261

 PERCENT DISCREPANCY IS DIFFERENCE BETWEEN IN-OUT MINUS CHANGE IN STORAGE
 DIVIDED BY THE AVERAGE OF IN AND OUT TIMES 100

 PERCENT DISCREPANCY =          -0.00     PERCENT DISCREPANCY =           0.00






 

            AG WELLS      PERIOD    5   STEP   6
 AG WELL      1   LAYER   1   ROW     6   COL     4   RATE   -0.586808    
 AG WELL      2   LAYER   1   ROW     6   COL     5   RATE   -0.566261    
 AG WELL      3   LAYER   1   ROW     7   COL     4   RATE     0.00000    
 AG WELL      4   LAYER   1   ROW     7   COL     5   RATE   -0.554914    
 AG WELL      5   LAYER   1   ROW     8   COL     4   RATE     0.00000    
 AG WELL      6   LAYER   1   ROW     8   COL     5   RATE     0.00000    
 
 

        GW IRRIGATION     PERIOD    5   STEP   6
 AG WELL      1   ROW     6   COL     4   RATE    0.586808    
 AG WELL      2   ROW     6   COL     5   RATE    0.566261    
 AG WELL      3   ROW     7   COL     4   RATE     0.00000    
 AG WELL      4   ROW     7   COL     5   RATE    0.554914    
 AG WELL      5   ROW     8   COL     4   RATE     0.00000    
 AG WELL      6   ROW     8   COL     5   RATE     0.00000    
 
1
  VOLUMETRIC BUDGET FOR ENTIRE MODEL AT END OF TIME STEP    6, STRESS PERIOD   5
  ------------------------------------------------------------------------------

     CUMULATIVE VOLUMES      L**3       RATES FOR THIS TIME STEP      L**3/T
     ------------------                 ------------------------

           IN:                                      IN:
           ---                                      ---
               AG WELLS  =     1244515.3750                 AG WELLS  =           1.7080
      DIVERSION SEGMENTS =           0.0000        DIVERSION SEGMENTS =           0.0000
           GW IRRIGATION =           0.0000             GW IRRIGATION =           0.0000
           SW IRRIGATION =           0.0000             SW IRRIGATION =           0.0000
        SYSTEM LOSSES GW =           0.0000          SYSTEM LOSSES GW =           0.0000
        SYSTEM LOSSES SW =           0.0000          SYSTEM LOSSES SW =           0.0000

                TOTAL IN =     1244515.3750                  TOTAL IN =           1.7080

          OUT:                                     OUT:
          ----                                     ----
               AG WELLS  =           0.0000                 AG WELLS  =           0.0000
      DIVERSION SEGMENTS =           0.0000        DIVERSION SEGMENTS =           0.0000
           GW IRRIGATION =     1244515.3750             GW IRRIGATION =           1.7080
           SW IRRIGATION =           0.0000             SW IRRIGATION =           0.0000
        SYSTEM LOSSES GW =           0.0000          SYSTEM LOSSES GW =           0.0000
        SYSTEM LOSSES SW =           0.0000          SYSTEM LOSSES SW =           0.0000

               TOTAL OUT =     1244515.3750                 TOTAL OUT =           1.7080

                IN - OUT =           0.0000                  IN - OUT =           0.0000

     PERCENT DISCREPANCY =           0.00         PERCENT DISCREPANCY =           0.00



1
  VOLUMETRIC BUDGET FOR ENTIRE MODEL AT END OF TIME STEP    6, STRESS PERIOD   5
  ------------------------------------------------------------------------------

     CUMULATIVE VOLUMES      L**3       RATES FOR THIS TIME STEP      L**3/T
     ------------------                 ------------------------

           IN:                                      IN:
           ---                                      ---
             STORAGE     =     7115053.0000               STORAGE     =           4.3867
       CONSTANT HEAD     =           0.0000         CONSTANT HEAD     =           0.0000
     HEAD DEP BOUNDS     =     2426780.0000       HEAD DEP BOUNDS     =           0.2855
      STREAM LEAKAGE     =   105080080.0000        STREAM LEAKAGE     =          11.6102
        UZF RECHARGE     =       73223.9531          UZF RECHARGE     =           0.0000
               GW ET     =           0.0000                 GW ET     =           0.0000
     SURFACE LEAKAGE     =           0.0000       SURFACE LEAKAGE     =           0.0000
           AG WELLS      =           0.0000             AG WELLS      =           0.0000

                TOTAL IN =   114695136.0000                  TOTAL IN =          16.2824

          OUT:                                     OUT:
          ----                                     ----
             STORAGE     =    23160272.0000               STORAGE     =           1.4529
       CONSTANT HEAD     =           0.0000         CONSTANT HEAD     =           0.0000
     HEAD DEP BOUNDS     =     2483683.5000       HEAD DEP BOUNDS     =           0.2959
      STREAM LEAKAGE     =    87759560.0000        STREAM LEAKAGE     =          12.6506
        UZF RECHARGE     =           0.0000          UZF RECHARGE     =           0.0000
               GW ET     =       52118.1953                 GW ET     =           0.1742
     SURFACE LEAKAGE     =           0.0000       SURFACE LEAKAGE     =           0.0000
           AG WELLS      =     1244515.3750             AG WELLS      =           1.7080

               TOTAL OUT =   114700152.0000                 TOTAL OUT =          16.2815

                IN - OUT =       -5016.0000                  IN - OUT =       8.4686E-04

     PERCENT DISCREPANCY =          -0.00         PERCENT DISCREPANCY =           0.01






         TIME SUMMARY AT END OF TIME STEP    6 IN STRESS PERIOD    5
                    SECONDS     MINUTES      HOURS       DAYS        YEARS
                    -----------------------------------------------------------
   TIME STEP LENGTH  87667.      1461.1      24.352      1.0147     2.77799E-03
 STRESS PERIOD TIME 5.26000E+05  8766.7      146.11      6.0880     1.66679E-02
         TOTAL TIME 8.50239E+06 1.41707E+05  2361.8      98.407     0.26942    
1
 
 SOLVING FOR HEAD 
                                                   Max.-Head-Change                         Max.-Flux-Residual
  Residual-Control   Outer-Iter.   Inner-Iter.     Column Row Layer    Maximum-Head-Change  Column Row Layer    Maximum-Flux-Residual          L2-NORM 
          0                 1           2             2   13     1      -0.9816152202E-02       4   13    1        -0.5655309256E+00      0.1403247455E+01
          0                 2           2             4    6     1       0.9517173255E-03       4   13    1         0.5607208462E-01      0.1382676646E+00
          0                 3           1             4    6     1      -0.6480843347E-04       4   13    1        -0.3878759950E-02      0.9494135688E-02

    ------------------------------------------------
       NWT REQUIRED            3 OUTER ITERATIONS 
       AND A TOTAL OF          5 INNER ITERATIONS.
    ------------------------------------------------

 OUTPUT CONTROL FOR STRESS PERIOD    5   TIME STEP    7
    PRINT BUDGET
    SAVE BUDGET
 UBDSV1 SAVING "         STORAGE" ON UNIT 102 AT TIME STEP  7, STRESS PERIOD   5
 UBDSV2 SAVING "   CONSTANT HEAD" ON UNIT 102 AT TIME STEP  7, STRESS PERIOD   5
 UBDSV1 SAVING "FLOW RIGHT FACE " ON UNIT 102 AT TIME STEP  7, STRESS PERIOD   5
 UBDSV1 SAVING "FLOW FRONT FACE " ON UNIT 102 AT TIME STEP  7, STRESS PERIOD   5

  HEAD DEP BOUNDS   PERIOD    5   STEP     7
 BOUNDARY      1   LAYER   1   ROW    13   COL     1   RATE   -0.295715    
 BOUNDARY      2   LAYER   1   ROW    14   COL     9   RATE    0.285475    



 STREAM LISTING     PERIOD      5   STEP        7

 LAYER ROW COL. STREAM  RCH.  FLOW INTO     FLOW TO   FLOW OUT OF   OVRLND.     DIRECT     STREAM       STREAM     STREAM     STREAM   STREAMBED  STREAMBED
                SEG.NO.  NO.  STRM. RCH.    AQUIFER    STRM. RCH.    RUNOFF     PRECIP       ET          HEAD       DEPTH      WIDTH   CONDCTNC.   GRADIENT

   1    1    1     1     1    2.8000E+01  2.5860E-01   2.7742E+01  0.000E+00  0.000E+00  0.000E+00  1.09427E+03  1.221E+00  1.361E+01  6.126E-02  1.407E+00
   1    2    2     1     2    2.7742E+01  4.0002E-01   2.7341E+01  0.000E+00  0.000E+00  0.000E+00  1.08928E+03  1.217E+00  1.355E+01  9.487E-02  1.406E+00
   1    3    3     1     3    2.7341E+01  3.4070E-01   2.7001E+01  0.000E+00  0.000E+00  0.000E+00  1.08363E+03  1.212E+00  1.348E+01  8.090E-02  1.404E+00
   1    3    4     1     4    2.7001E+01  3.1335E-01   2.6687E+01  0.000E+00  0.000E+00  0.000E+00  1.07861E+03  1.207E+00  1.342E+01  7.448E-02  1.402E+00
   1    4    5     2     1    2.4687E+01  3.2711E-01   2.4360E+01  0.000E+00  0.000E+00  0.000E+00  1.07313E+03  1.194E+00  1.200E+01  7.800E-02  1.398E+00
   1    5    6     2     2    2.4360E+01  2.5111E-01   2.4109E+01  0.000E+00  0.000E+00  0.000E+00  1.06769E+03  1.185E+00  1.200E+01  6.000E-02  1.395E+00
   1    6    6     2     3    2.4109E+01  2.5067E-01   2.3859E+01  0.000E+00  0.000E+00  0.000E+00  1.06297E+03  1.178E+00  1.200E+01  6.000E-02  1.393E+00
   1    7    6     2     4    2.3859E+01  2.5023E-01   2.3608E+01  0.000E+00  0.000E+00  0.000E+00  1.05825E+03  1.170E+00  1.200E+01  6.000E-02  1.390E+00
   1    8    6     2     5    2.3608E+01  2.4978E-01   2.3359E+01  0.000E+00  0.000E+00  0.000E+00  1.05352E+03  1.163E+00  1.200E+01  6.000E-02  1.388E+00
   1    3    5     3     1    2.0000E+00  2.8252E-01   1.7175E+00  0.000E+00  0.000E+00  0.000E+00  1.07555E+03  1.909E+00  9.636E+00  7.227E-02  1.955E+00
   1    3    6     3     2    1.7175E+00  2.4905E-01   1.4684E+00  0.000E+00  0.000E+00  0.000E+00  1.07264E+03  1.727E+00  8.909E+00  6.682E-02  1.864E+00
   1    3    7     3     3    1.4684E+00  1.9718E-01   1.2712E+00  0.000E+00  0.000E+00  0.000E+00  1.06987E+03  1.555E+00  8.218E+00  5.547E-02  1.777E+00
   1    4    8     3     4    1.2712E+00  2.2567E-01   1.0456E+00  0.000E+00  0.000E+00  0.000E+00  1.06682E+03  1.364E+00  7.455E+00  6.709E-02  1.682E+00
   1    5    8     3     5    1.0456E+00  1.5790E-01   8.8768E-01  0.000E+00  0.000E+00  0.000E+00  1.06362E+03  1.164E+00  6.655E+00  4.991E-02  1.582E+00
   1    6    8     3     6    8.8768E-01  5.5980E-02   8.3170E-01  0.000E+00  0.000E+00  0.000E+00  1.06158E+03  1.036E+00  6.145E+00  1.844E-02  1.518E+00
   1    5   10     4     1    1.0000E+01  9.0919E-02   9.9091E+00  0.000E+00  0.000E+00  0.000E+00  1.07836E+03  6.368E-01  1.000E+01  2.500E-02  1.212E+00
   1    5    9     4     2    9.9091E+00  1.8158E-01   9.7275E+00  0.000E+00  0.000E+00  0.000E+00  1.07154E+03  6.315E-01  1.000E+01  5.000E-02  1.211E+00
   1    6    8     4     3    9.7275E+00  1.2689E-01   9.6006E+00  0.000E+00  0.000E+00  0.000E+00  1.06381E+03  6.256E-01  1.000E+01  3.500E-02  1.209E+00
   1    6    8     5     1    1.0432E+01  2.2686E-01   1.0205E+01  0.000E+00  0.000E+00  0.000E+00  1.05868E+03  6.790E-01  1.542E+01  6.166E-02  1.226E+00
   1    7    7     5     2    1.0205E+01  2.7894E-01   9.9265E+00  0.000E+00  0.000E+00  0.000E+00  1.05417E+03  6.732E-01  1.519E+01  7.594E-02  1.224E+00
   1    8    7     5     3    9.9265E+00  1.9221E-01   9.7343E+00  0.000E+00  0.000E+00  0.000E+00  1.04992E+03  6.676E-01  1.497E+01  5.241E-02  1.223E+00
   1    8    6     5     4    9.7343E+00  1.3577E-01   9.5985E+00  0.000E+00  0.000E+00  0.000E+00  1.04691E+03  6.637E-01  1.482E+01  3.706E-02  1.221E+00
   1    9    6     6     1    3.2957E+01  2.6627E-01   3.2691E+01  0.000E+00  0.000E+00  0.000E+00  1.04417E+03  1.438E+00  1.200E+01  6.000E-02  1.479E+00
   1   10    7     6     2    3.2691E+01  2.6585E-01   3.2425E+01  0.000E+00  0.000E+00  0.000E+00  1.03961E+03  1.431E+00  1.200E+01  6.000E-02  1.477E+00
   1   11    7     6     3    3.2425E+01  2.6542E-01   3.2160E+01  0.000E+00  0.000E+00  0.000E+00  1.03506E+03  1.424E+00  1.200E+01  6.000E-02  1.475E+00
   1   12    7     6     4    3.2160E+01  2.6500E-01   3.1895E+01  0.000E+00  0.000E+00  0.000E+00  1.03051E+03  1.417E+00  1.200E+01  6.000E-02  1.472E+00
   1   13    7     6     5    3.1895E+01  3.4517E-03   3.1891E+01  0.000E+00  0.000E+00  0.000E+00  1.02732E+03  1.413E+00  1.200E+01  2.400E-02  4.794E-02
   1   14    9     7     1    1.5000E+02  1.3316E+00   1.4867E+02  0.000E+00  0.000E+00  0.000E+00  1.03987E+03  2.288E+00  5.529E+01  5.593E-01  7.936E-01
   1   13    8     7     2    1.4867E+02  1.8137E+00   1.4685E+02  0.000E+00  0.000E+00  0.000E+00  1.03478E+03  2.279E+00  5.526E+01  6.148E-01  9.834E-01
   1   13    7     7     3    1.4685E+02  1.4027E+00   1.4545E+02  0.000E+00  0.000E+00  0.000E+00  1.02969E+03  2.271E+00  5.522E+01  5.585E-01  8.372E-01
   1   13    6     8     1    1.7734E+02  8.5940E-01   1.7648E+02  0.000E+00  0.000E+00  0.000E+00  1.02487E+03  2.997E+00  4.345E+01  4.428E-01  6.470E-01
   1   13    5     8     2    1.7648E+02  9.4493E-02   1.7639E+02  0.000E+00  0.000E+00  0.000E+00  1.01862E+03  2.994E+00  4.341E+01  4.423E-01  7.121E-02
   1   13    4     8     3    1.7639E+02 -3.0236E+00   1.7941E+02  0.000E+00  0.000E+00  0.000E+00  1.01238E+03  3.003E+00  4.354E+01  4.437E+00 -2.271E-01
   1   13    3     8     4    1.7941E+02 -4.1349E+00   1.8355E+02  0.000E+00  0.000E+00  0.000E+00  1.00615E+03  3.025E+00  4.387E+01  4.470E+00 -3.083E-01
   1   13    2     8     5    1.8355E+02 -3.0732E+00   1.8662E+02  0.000E+00  0.000E+00  0.000E+00  9.99923E+02  3.048E+00  4.419E+01  4.503E+00 -2.275E-01
   1   13    1     8     6    1.8662E+02 -2.2893E+00   1.8891E+02  0.000E+00  0.000E+00  0.000E+00  9.94939E+02  3.064E+00  4.443E+01  2.717E+00 -2.809E-01



 UBDSV3 SAVING "           GW ET" ON UNIT  61 AT TIME STEP  7, STRESS PERIOD   5
 UBDSV3 SAVING "    UZF RECHARGE" ON UNIT  61 AT TIME STEP  7, STRESS PERIOD   5
 UBDSV3 SAVING " SURFACE LEAKAGE" ON UNIT  61 AT TIME STEP  7, STRESS PERIOD   5
 UBDSV3 SAVING "       HORT+DUNN" ON UNIT  61 AT TIME STEP  7, STRESS PERIOD   5
 UBDSV3 SAVING "  STORAGE CHANGE" ON UNIT  61 AT TIME STEP  7, STRESS PERIOD   5


UNSATURATED ZONE PACKAGE VOLUMETRIC BUDGET FOR  TIME STEP     7 STRESS PERIOD    5
  ------------------------------------------------------------------------------



     CUMULATIVE VOLUMES      L**3       RATES FOR THIS TIME STEP      L**3/T
     ------------------                 ------------------------

           IN:                                      IN:
           ---                                      ---
        INFILTRATION =    38949318.7161          INFILTRATION =           6.1376

          OUT:                                     OUT:
          ----                                     ----
              UZF ET =    18821968.0823                UZF ET =          16.1436
        UZF RECHARGE =       73224.0000          UZF RECHARGE =       0.0000E+00

            IN - OUT =    20054126.6338              IN - OUT =         -10.0060

          STORAGE:                                 STORAGE:
          --------                                 --------
      STORAGE CHANGE =    20054158.6241        STORAGE CHANGE =         -10.0060

 PERCENT DISCREPANCY IS DIFFERENCE BETWEEN IN-OUT MINUS CHANGE IN STORAGE
 DIVIDED BY THE AVERAGE OF IN AND OUT TIMES 100

 PERCENT DISCREPANCY =          -0.00     PERCENT DISCREPANCY =           0.00






 

            AG WELLS      PERIOD    5   STEP   7
 AG WELL      1   LAYER   1   ROW     6   COL     4   RATE   -0.591586    
 AG WELL      2   LAYER   1   ROW     6   COL     5   RATE   -0.569568    
 AG WELL      3   LAYER   1   ROW     7   COL     4   RATE   -1.373000E-03
 AG WELL      4   LAYER   1   ROW     7   COL     5   RATE   -0.558348    
 AG WELL      5   LAYER   1   ROW     8   COL     4   RATE   -1.373000E-03
 AG WELL      6   LAYER   1   ROW     8   COL     5   RATE   -7.827314E-03
 
 

        GW IRRIGATION     PERIOD    5   STEP   7
 AG WELL      1   ROW     6   COL     4   RATE    0.591586    
 AG WELL      2   ROW     6   COL     5   RATE    0.569568    
 AG WELL      3   ROW     7   COL     4   RATE    1.373000E-03
 AG WELL      4   ROW     7   COL     5   RATE    0.558348    
 AG WELL      5   ROW     8   COL     4   RATE    1.373000E-03
 AG WELL      6   ROW     8   COL     5   RATE    7.827314E-03
 
1
  VOLUMETRIC BUDGET FOR ENTIRE MODEL AT END OF TIME STEP    7, STRESS PERIOD   5
  ------------------------------------------------------------------------------

     CUMULATIVE VOLUMES      L**3       RATES FOR THIS TIME STEP      L**3/T
     ------------------                 ------------------------

           IN:                                      IN:
           ---                                      ---
               AG WELLS  =     1396185.3750                 AG WELLS  =           1.7301
      DIVERSION SEGMENTS =           0.0000        DIVERSION SEGMENTS =           0.0000
           GW IRRIGATION =           0.0000             GW IRRIGATION =           0.0000
           SW IRRIGATION =           0.0000             SW IRRIGATION =           0.0000
        SYSTEM LOSSES GW =           0.0000          SYSTEM LOSSES GW =           0.0000
        SYSTEM LOSSES SW =           0.0000          SYSTEM LOSSES SW =           0.0000

                TOTAL IN =     1396185.3750                  TOTAL IN =           1.7301

          OUT:                                     OUT:
          ----                                     ----
               AG WELLS  =           0.0000                 AG WELLS  =           0.0000
      DIVERSION SEGMENTS =           0.0000        DIVERSION SEGMENTS =           0.0000
           GW IRRIGATION =     1396185.3750             GW IRRIGATION =           1.7301
           SW IRRIGATION =           0.0000             SW IRRIGATION =           0.0000
        SYSTEM LOSSES GW =           0.0000          SYSTEM LOSSES GW =           0.0000
        SYSTEM LOSSES SW =           0.0000          SYSTEM LOSSES SW =           0.0000

               TOTAL OUT =     1396185.3750                 TOTAL OUT =           1.7301

                IN - OUT =           0.0000                  IN - OUT =           0.0000

     PERCENT DISCREPANCY =           0.00         PERCENT DISCREPANCY =           0.00



1
  VOLUMETRIC BUDGET FOR ENTIRE MODEL AT END OF TIME STEP    7, STRESS PERIOD   5
  ------------------------------------------------------------------------------

     CUMULATIVE VOLUMES      L**3       RATES FOR THIS TIME STEP      L**3/T
     ------------------                 ------------------------

           IN:                                      IN:
           ---                                      ---
             STORAGE     =     7483066.0000               STORAGE     =           4.1979
       CONSTANT HEAD     =           0.0000         CONSTANT HEAD     =           0.0000
     HEAD DEP BOUNDS     =     2451806.7500       HEAD DEP BOUNDS     =           0.2855
      STREAM LEAKAGE     =   106097976.0000        STREAM LEAKAGE     =          11.6110
        UZF RECHARGE     =       73223.9531          UZF RECHARGE     =           0.0000
               GW ET     =           0.0000                 GW ET     =           0.0000
     SURFACE LEAKAGE     =           0.0000       SURFACE LEAKAGE     =           0.0000
           AG WELLS      =           0.0000             AG WELLS      =           0.0000

                TOTAL IN =   116106072.0000                  TOTAL IN =          16.0944

          OUT:                                     OUT:
          ----                                     ----
             STORAGE     =    23282390.0000               STORAGE     =           1.3930
       CONSTANT HEAD     =           0.0000         CONSTANT HEAD     =           0.0000
     HEAD DEP BOUNDS     =     2509608.0000       HEAD DEP BOUNDS     =           0.2957
      STREAM LEAKAGE     =    88857224.0000        STREAM LEAKAGE     =          12.5209
        UZF RECHARGE     =           0.0000          UZF RECHARGE     =           0.0000
               GW ET     =       65610.6094                 GW ET     =           0.1539
     SURFACE LEAKAGE     =           0.0000       SURFACE LEAKAGE     =           0.0000
           AG WELLS      =     1396185.3750             AG WELLS      =           1.7301

               TOTAL OUT =   116111016.0000                 TOTAL OUT =          16.0936

                IN - OUT =       -4944.0000                  IN - OUT =       8.0490E-04

     PERCENT DISCREPANCY =          -0.00         PERCENT DISCREPANCY =           0.01






         TIME SUMMARY AT END OF TIME STEP    7 IN STRESS PERIOD    5
                    SECONDS     MINUTES      HOURS       DAYS        YEARS
                    -----------------------------------------------------------
   TIME STEP LENGTH  87667.      1461.1      24.352      1.0147     2.77799E-03
 STRESS PERIOD TIME 6.13667E+05  10228.      170.46      7.1026     1.94459E-02
         TOTAL TIME 8.59006E+06 1.43168E+05  2386.1      99.422     0.27220    
1
 
 SOLVING FOR HEAD 
                                                   Max.-Head-Change                         Max.-Flux-Residual
  Residual-Control   Outer-Iter.   Inner-Iter.     Column Row Layer    Maximum-Head-Change  Column Row Layer    Maximum-Flux-Residual          L2-NORM 
          0                 1           2             4    6     1      -0.9549663133E-02       2   13    1        -0.5113677674E+00      0.1367126536E+01
          0                 2           2             4    6     1       0.9273740220E-03       4    6    1         0.5088856003E-01      0.1328765486E+00
          0                 3           2             4    8     1      -0.3019114186E-02       4    7    1        -0.1715825977E+00      0.2425456356E+00
          0                 4           2             4    8     1       0.1201296577E-03       4    8    1         0.7001958769E-02      0.9907166565E-02
          0                 5           1             4    8     1      -0.1481251929E-05       4    8    1        -0.8873646357E-04      0.1255389284E-03

    ------------------------------------------------
       NWT REQUIRED            5 OUTER ITERATIONS 
       AND A TOTAL OF          9 INNER ITERATIONS.
    ------------------------------------------------

 OUTPUT CONTROL FOR STRESS PERIOD    5   TIME STEP    8
    PRINT BUDGET
    SAVE BUDGET
 UBDSV1 SAVING "         STORAGE" ON UNIT 102 AT TIME STEP  8, STRESS PERIOD   5
 UBDSV2 SAVING "   CONSTANT HEAD" ON UNIT 102 AT TIME STEP  8, STRESS PERIOD   5
 UBDSV1 SAVING "FLOW RIGHT FACE " ON UNIT 102 AT TIME STEP  8, STRESS PERIOD   5
 UBDSV1 SAVING "FLOW FRONT FACE " ON UNIT 102 AT TIME STEP  8, STRESS PERIOD   5

  HEAD DEP BOUNDS   PERIOD    5   STEP     8
 BOUNDARY      1   LAYER   1   ROW    13   COL     1   RATE   -0.295506    
 BOUNDARY      2   LAYER   1   ROW    14   COL     9   RATE    0.285475    



 STREAM LISTING     PERIOD      5   STEP        8

 LAYER ROW COL. STREAM  RCH.  FLOW INTO     FLOW TO   FLOW OUT OF   OVRLND.     DIRECT     STREAM       STREAM     STREAM     STREAM   STREAMBED  STREAMBED
                SEG.NO.  NO.  STRM. RCH.    AQUIFER    STRM. RCH.    RUNOFF     PRECIP       ET          HEAD       DEPTH      WIDTH   CONDCTNC.   GRADIENT

   1    1    1     1     1    2.8000E+01  2.5860E-01   2.7742E+01  0.000E+00  0.000E+00  0.000E+00  1.09427E+03  1.221E+00  1.361E+01  6.126E-02  1.407E+00
   1    2    2     1     2    2.7742E+01  4.0002E-01   2.7341E+01  0.000E+00  0.000E+00  0.000E+00  1.08928E+03  1.217E+00  1.355E+01  9.487E-02  1.406E+00
   1    3    3     1     3    2.7341E+01  3.4070E-01   2.7001E+01  0.000E+00  0.000E+00  0.000E+00  1.08363E+03  1.212E+00  1.348E+01  8.090E-02  1.404E+00
   1    3    4     1     4    2.7001E+01  3.1335E-01   2.6687E+01  0.000E+00  0.000E+00  0.000E+00  1.07861E+03  1.207E+00  1.342E+01  7.448E-02  1.402E+00
   1    4    5     2     1    2.4687E+01  3.2711E-01   2.4360E+01  0.000E+00  0.000E+00  0.000E+00  1.07313E+03  1.194E+00  1.200E+01  7.800E-02  1.398E+00
   1    5    6     2     2    2.4360E+01  2.5111E-01   2.4109E+01  0.000E+00  0.000E+00  0.000E+00  1.06769E+03  1.185E+00  1.200E+01  6.000E-02  1.395E+00
   1    6    6     2     3    2.4109E+01  2.5067E-01   2.3859E+01  0.000E+00  0.000E+00  0.000E+00  1.06297E+03  1.178E+00  1.200E+01  6.000E-02  1.393E+00
   1    7    6     2     4    2.3859E+01  2.5023E-01   2.3608E+01  0.000E+00  0.000E+00  0.000E+00  1.05825E+03  1.170E+00  1.200E+01  6.000E-02  1.390E+00
   1    8    6     2     5    2.3608E+01  2.4978E-01   2.3359E+01  0.000E+00  0.000E+00  0.000E+00  1.05352E+03  1.163E+00  1.200E+01  6.000E-02  1.388E+00
   1    3    5     3     1    2.0000E+00  2.8252E-01   1.7175E+00  0.000E+00  0.000E+00  0.000E+00  1.07555E+03  1.909E+00  9.636E+00  7.227E-02  1.955E+00
   1    3    6     3     2    1.7175E+00  2.4905E-01   1.4684E+00  0.000E+00  0.000E+00  0.000E+00  1.07264E+03  1.727E+00  8.909E+00  6.682E-02  1.864E+00
   1    3    7     3     3    1.4684E+00  1.9718E-01   1.2712E+00  0.000E+00  0.000E+00  0.000E+00  1.06987E+03  1.555E+00  8.218E+00  5.547E-02  1.777E+00
   1    4    8     3     4    1.2712E+00  2.2567E-01   1.0456E+00  0.000E+00  0.000E+00  0.000E+00  1.06682E+03  1.364E+00  7.455E+00  6.709E-02  1.682E+00
   1    5    8     3     5    1.0456E+00  1.5790E-01   8.8768E-01  0.000E+00  0.000E+00  0.000E+00  1.06362E+03  1.164E+00  6.655E+00  4.991E-02  1.582E+00
   1    6    8     3     6    8.8768E-01  5.5980E-02   8.3170E-01  0.000E+00  0.000E+00  0.000E+00  1.06158E+03  1.036E+00  6.145E+00  1.844E-02  1.518E+00
   1    5   10     4     1    1.0000E+01  9.0919E-02   9.9091E+00  0.000E+00  0.000E+00  0.000E+00  1.07836E+03  6.368E-01  1.000E+01  2.500E-02  1.212E+00
   1    5    9     4     2    9.9091E+00  1.8158E-01   9.7275E+00  0.000E+00  0.000E+00  0.000E+00  1.07154E+03  6.315E-01  1.000E+01  5.000E-02  1.211E+00
   1    6    8     4     3    9.7275E+00  1.2689E-01   9.6006E+00  0.000E+00  0.000E+00  0.000E+00  1.06381E+03  6.256E-01  1.000E+01  3.500E-02  1.209E+00
   1    6    8     5     1    1.0432E+01  2.2686E-01   1.0205E+01  0.000E+00  0.000E+00  0.000E+00  1.05868E+03  6.790E-01  1.542E+01  6.166E-02  1.226E+00
   1    7    7     5     2    1.0205E+01  2.7894E-01   9.9265E+00  0.000E+00  0.000E+00  0.000E+00  1.05417E+03  6.732E-01  1.519E+01  7.594E-02  1.224E+00
   1    8    7     5     3    9.9265E+00  1.9221E-01   9.7343E+00  0.000E+00  0.000E+00  0.000E+00  1.04992E+03  6.676E-01  1.497E+01  5.241E-02  1.223E+00
   1    8    6     5     4    9.7343E+00  1.3577E-01   9.5985E+00  0.000E+00  0.000E+00  0.000E+00  1.04691E+03  6.637E-01  1.482E+01  3.706E-02  1.221E+00
   1    9    6     6     1    3.2957E+01  2.6627E-01   3.2691E+01  0.000E+00  0.000E+00  0.000E+00  1.04417E+03  1.438E+00  1.200E+01  6.000E-02  1.479E+00
   1   10    7     6     2    3.2691E+01  2.6585E-01   3.2425E+01  0.000E+00  0.000E+00  0.000E+00  1.03961E+03  1.431E+00  1.200E+01  6.000E-02  1.477E+00
   1   11    7     6     3    3.2425E+01  2.6542E-01   3.2160E+01  0.000E+00  0.000E+00  0.000E+00  1.03506E+03  1.424E+00  1.200E+01  6.000E-02  1.475E+00
   1   12    7     6     4    3.2160E+01  2.6500E-01   3.1895E+01  0.000E+00  0.000E+00  0.000E+00  1.03051E+03  1.417E+00  1.200E+01  6.000E-02  1.472E+00
   1   13    7     6     5    3.1895E+01  3.4439E-03   3.1891E+01  0.000E+00  0.000E+00  0.000E+00  1.02732E+03  1.413E+00  1.200E+01  2.400E-02  4.783E-02
   1   14    9     7     1    1.5000E+02  1.3317E+00   1.4867E+02  0.000E+00  0.000E+00  0.000E+00  1.03987E+03  2.288E+00  5.529E+01  5.593E-01  7.936E-01
   1   13    8     7     2    1.4867E+02  1.8136E+00   1.4685E+02  0.000E+00  0.000E+00  0.000E+00  1.03478E+03  2.279E+00  5.526E+01  6.148E-01  9.833E-01
   1   13    7     7     3    1.4685E+02  1.4025E+00   1.4545E+02  0.000E+00  0.000E+00  0.000E+00  1.02969E+03  2.271E+00  5.522E+01  5.585E-01  8.371E-01
   1   13    6     8     1    1.7734E+02  8.5997E-01   1.7648E+02  0.000E+00  0.000E+00  0.000E+00  1.02487E+03  2.997E+00  4.345E+01  4.428E-01  6.474E-01
   1   13    5     8     2    1.7648E+02  9.5075E-02   1.7639E+02  0.000E+00  0.000E+00  0.000E+00  1.01862E+03  2.994E+00  4.341E+01  4.423E-01  7.165E-02
   1   13    4     8     3    1.7639E+02 -2.9892E+00   1.7938E+02  0.000E+00  0.000E+00  0.000E+00  1.01238E+03  3.003E+00  4.354E+01  4.437E+00 -2.246E-01
   1   13    3     8     4    1.7938E+02 -4.1000E+00   1.8348E+02  0.000E+00  0.000E+00  0.000E+00  1.00615E+03  3.025E+00  4.386E+01  4.470E+00 -3.057E-01
   1   13    2     8     5    1.8348E+02 -3.0377E+00   1.8652E+02  0.000E+00  0.000E+00  0.000E+00  9.99922E+02  3.047E+00  4.419E+01  4.503E+00 -2.249E-01
   1   13    1     8     6    1.8652E+02 -2.2757E+00   1.8879E+02  0.000E+00  0.000E+00  0.000E+00  9.94939E+02  3.064E+00  4.442E+01  2.716E+00 -2.793E-01



 UBDSV3 SAVING "           GW ET" ON UNIT  61 AT TIME STEP  8, STRESS PERIOD   5
 UBDSV3 SAVING "    UZF RECHARGE" ON UNIT  61 AT TIME STEP  8, STRESS PERIOD   5
 UBDSV3 SAVING " SURFACE LEAKAGE" ON UNIT  61 AT TIME STEP  8, STRESS PERIOD   5
 UBDSV3 SAVING "       HORT+DUNN" ON UNIT  61 AT TIME STEP  8, STRESS PERIOD   5
 UBDSV3 SAVING "  STORAGE CHANGE" ON UNIT  61 AT TIME STEP  8, STRESS PERIOD   5


UNSATURATED ZONE PACKAGE VOLUMETRIC BUDGET FOR  TIME STEP     8 STRESS PERIOD    5
  ------------------------------------------------------------------------------



     CUMULATIVE VOLUMES      L**3       RATES FOR THIS TIME STEP      L**3/T
     ------------------                 ------------------------

           IN:                                      IN:
           ---                                      ---
        INFILTRATION =    39578313.5579          INFILTRATION =           7.1748

          OUT:                                     OUT:
          ----                                     ----
              UZF ET =    20240955.4895                UZF ET =          16.1862
        UZF RECHARGE =       73224.0000          UZF RECHARGE =       0.0000E+00

            IN - OUT =    19264134.0684              IN - OUT =          -9.0113

          STORAGE:                                 STORAGE:
          --------                                 --------
      STORAGE CHANGE =    19264166.0786        STORAGE CHANGE =          -9.0113

 PERCENT DISCREPANCY IS DIFFERENCE BETWEEN IN-OUT MINUS CHANGE IN STORAGE
 DIVIDED BY THE AVERAGE OF IN AND OUT TIMES 100

 PERCENT DISCREPANCY =          -0.00     PERCENT DISCREPANCY =           0.00






 

            AG WELLS      PERIOD    5   STEP   8
 AG WELL      1   LAYER   1   ROW     6   COL     4   RATE   -0.592097    
 AG WELL      2   LAYER   1   ROW     6   COL     5   RATE   -0.572161    
 AG WELL      3   LAYER   1   ROW     7   COL     4   RATE   -0.519522    
 AG WELL      4   LAYER   1   ROW     7   COL     5   RATE   -0.561021    
 AG WELL      5   LAYER   1   ROW     8   COL     4   RATE   -0.519522    
 AG WELL      6   LAYER   1   ROW     8   COL     5   RATE   -3.023810E-03
 
 

        GW IRRIGATION     PERIOD    5   STEP   8
 AG WELL      1   ROW     6   COL     4   RATE    0.592097    
 AG WELL      2   ROW     6   COL     5   RATE    0.572161    
 AG WELL      3   ROW     7   COL     4   RATE    0.519522    
 AG WELL      4   ROW     7   COL     5   RATE    0.561021    
 AG WELL      5   ROW     8   COL     4   RATE    0.519522    
 AG WELL      6   ROW     8   COL     5   RATE    3.023810E-03
 
1
  VOLUMETRIC BUDGET FOR ENTIRE MODEL AT END OF TIME STEP    8, STRESS PERIOD   5
  ------------------------------------------------------------------------------

     CUMULATIVE VOLUMES      L**3       RATES FOR THIS TIME STEP      L**3/T
     ------------------                 ------------------------

           IN:                                      IN:
           ---                                      ---
               AG WELLS  =     1638789.3750                 AG WELLS  =           2.7673
      DIVERSION SEGMENTS =           0.0000        DIVERSION SEGMENTS =           0.0000
           GW IRRIGATION =           0.0000             GW IRRIGATION =           0.0000
           SW IRRIGATION =           0.0000             SW IRRIGATION =           0.0000
        SYSTEM LOSSES GW =           0.0000          SYSTEM LOSSES GW =           0.0000
        SYSTEM LOSSES SW =           0.0000          SYSTEM LOSSES SW =           0.0000

                TOTAL IN =     1638789.3750                  TOTAL IN =           2.7673

          OUT:                                     OUT:
          ----                                     ----
               AG WELLS  =           0.0000                 AG WELLS  =           0.0000
      DIVERSION SEGMENTS =           0.0000        DIVERSION SEGMENTS =           0.0000
           GW IRRIGATION =     1638789.3750             GW IRRIGATION =           2.7673
           SW IRRIGATION =           0.0000             SW IRRIGATION =           0.0000
        SYSTEM LOSSES GW =           0.0000          SYSTEM LOSSES GW =           0.0000
        SYSTEM LOSSES SW =           0.0000          SYSTEM LOSSES SW =           0.0000

               TOTAL OUT =     1638789.3750                 TOTAL OUT =           2.7673

                IN - OUT =           0.0000                  IN - OUT =           0.0000

     PERCENT DISCREPANCY =           0.00         PERCENT DISCREPANCY =           0.00



1
  VOLUMETRIC BUDGET FOR ENTIRE MODEL AT END OF TIME STEP    8, STRESS PERIOD   5
  ------------------------------------------------------------------------------

     CUMULATIVE VOLUMES      L**3       RATES FOR THIS TIME STEP      L**3/T
     ------------------                 ------------------------

           IN:                                      IN:
           ---                                      ---
             STORAGE     =     7914091.0000               STORAGE     =           4.9166
       CONSTANT HEAD     =           0.0000         CONSTANT HEAD     =           0.0000
     HEAD DEP BOUNDS     =     2476833.5000       HEAD DEP BOUNDS     =           0.2855
      STREAM LEAKAGE     =   107115944.0000        STREAM LEAKAGE     =          11.6118
        UZF RECHARGE     =       73223.9531          UZF RECHARGE     =           0.0000
               GW ET     =           0.0000                 GW ET     =           0.0000
     SURFACE LEAKAGE     =           0.0000       SURFACE LEAKAGE     =           0.0000
           AG WELLS      =           0.0000             AG WELLS      =           0.0000

                TOTAL IN =   117580088.0000                  TOTAL IN =          16.8139

          OUT:                                     OUT:
          ----                                     ----
             STORAGE     =    23388708.0000               STORAGE     =           1.2128
       CONSTANT HEAD     =           0.0000         CONSTANT HEAD     =           0.0000
     HEAD DEP BOUNDS     =     2535514.0000       HEAD DEP BOUNDS     =           0.2955
      STREAM LEAKAGE     =    89944512.0000        STREAM LEAKAGE     =          12.4026
        UZF RECHARGE     =           0.0000          UZF RECHARGE     =           0.0000
               GW ET     =       77512.5469                 GW ET     =           0.1358
     SURFACE LEAKAGE     =           0.0000       SURFACE LEAKAGE     =           0.0000
           AG WELLS      =     1638789.3750             AG WELLS      =           2.7673

               TOTAL OUT =   117585040.0000                 TOTAL OUT =          16.8139

                IN - OUT =       -4952.0000                  IN - OUT =       1.9073E-06

     PERCENT DISCREPANCY =          -0.00         PERCENT DISCREPANCY =           0.00






         TIME SUMMARY AT END OF TIME STEP    8 IN STRESS PERIOD    5
                    SECONDS     MINUTES      HOURS       DAYS        YEARS
                    -----------------------------------------------------------
   TIME STEP LENGTH  87667.      1461.1      24.352      1.0147     2.77799E-03
 STRESS PERIOD TIME 7.01333E+05  11689.      194.81      8.1173     2.22239E-02
         TOTAL TIME 8.67773E+06 1.44629E+05  2410.5      100.44     0.27498    
1
 
 SOLVING FOR HEAD 
                                                   Max.-Head-Change                         Max.-Flux-Residual
  Residual-Control   Outer-Iter.   Inner-Iter.     Column Row Layer    Maximum-Head-Change  Column Row Layer    Maximum-Flux-Residual          L2-NORM 
          0                 1           2             5    8     1      -0.1048497690E-01       5    8    1        -0.5672834829E+00      0.1412488900E+01
          0                 2           2             5    8     1       0.1018614257E-02       5    8    1         0.5672793744E-01      0.1383325006E+00
          0                 3           2             4    8     1      -0.2619604894E+00       4    7    1        -0.1485612810E+02      0.2100942490E+02
          0                 4           2             4    7     1       0.1039545702E-01       4    7    1         0.6075928668E+00      0.8559774285E+00
          0                 5           2             4    7     1      -0.1281811682E-03       4    7    1        -0.7700113259E-02      0.1084807431E-01
          0                 6           1             4    7     1      -0.1885190511E-05       4    7    1        -0.1132462107E-03      0.1595438729E-03

    ------------------------------------------------
       NWT REQUIRED            6 OUTER ITERATIONS 
       AND A TOTAL OF         11 INNER ITERATIONS.
    ------------------------------------------------

 OUTPUT CONTROL FOR STRESS PERIOD    5   TIME STEP    9
    PRINT BUDGET
    SAVE BUDGET
 UBDSV1 SAVING "         STORAGE" ON UNIT 102 AT TIME STEP  9, STRESS PERIOD   5
 UBDSV2 SAVING "   CONSTANT HEAD" ON UNIT 102 AT TIME STEP  9, STRESS PERIOD   5
 UBDSV1 SAVING "FLOW RIGHT FACE " ON UNIT 102 AT TIME STEP  9, STRESS PERIOD   5
 UBDSV1 SAVING "FLOW FRONT FACE " ON UNIT 102 AT TIME STEP  9, STRESS PERIOD   5

  HEAD DEP BOUNDS   PERIOD    5   STEP     9
 BOUNDARY      1   LAYER   1   ROW    13   COL     1   RATE   -0.295306    
 BOUNDARY      2   LAYER   1   ROW    14   COL     9   RATE    0.285476    



 STREAM LISTING     PERIOD      5   STEP        9

 LAYER ROW COL. STREAM  RCH.  FLOW INTO     FLOW TO   FLOW OUT OF   OVRLND.     DIRECT     STREAM       STREAM     STREAM     STREAM   STREAMBED  STREAMBED
                SEG.NO.  NO.  STRM. RCH.    AQUIFER    STRM. RCH.    RUNOFF     PRECIP       ET          HEAD       DEPTH      WIDTH   CONDCTNC.   GRADIENT

   1    1    1     1     1    2.8000E+01  2.5860E-01   2.7742E+01  0.000E+00  0.000E+00  0.000E+00  1.09427E+03  1.221E+00  1.361E+01  6.126E-02  1.407E+00
   1    2    2     1     2    2.7742E+01  4.0002E-01   2.7341E+01  0.000E+00  0.000E+00  0.000E+00  1.08928E+03  1.217E+00  1.355E+01  9.487E-02  1.406E+00
   1    3    3     1     3    2.7341E+01  3.4070E-01   2.7001E+01  0.000E+00  0.000E+00  0.000E+00  1.08363E+03  1.212E+00  1.348E+01  8.090E-02  1.404E+00
   1    3    4     1     4    2.7001E+01  3.1335E-01   2.6687E+01  0.000E+00  0.000E+00  0.000E+00  1.07861E+03  1.207E+00  1.342E+01  7.448E-02  1.402E+00
   1    4    5     2     1    2.4687E+01  3.2711E-01   2.4360E+01  0.000E+00  0.000E+00  0.000E+00  1.07313E+03  1.194E+00  1.200E+01  7.800E-02  1.398E+00
   1    5    6     2     2    2.4360E+01  2.5111E-01   2.4109E+01  0.000E+00  0.000E+00  0.000E+00  1.06769E+03  1.185E+00  1.200E+01  6.000E-02  1.395E+00
   1    6    6     2     3    2.4109E+01  2.5067E-01   2.3859E+01  0.000E+00  0.000E+00  0.000E+00  1.06297E+03  1.178E+00  1.200E+01  6.000E-02  1.393E+00
   1    7    6     2     4    2.3859E+01  2.5023E-01   2.3608E+01  0.000E+00  0.000E+00  0.000E+00  1.05825E+03  1.170E+00  1.200E+01  6.000E-02  1.390E+00
   1    8    6     2     5    2.3608E+01  2.4978E-01   2.3359E+01  0.000E+00  0.000E+00  0.000E+00  1.05352E+03  1.163E+00  1.200E+01  6.000E-02  1.388E+00
   1    3    5     3     1    2.0000E+00  2.8252E-01   1.7175E+00  0.000E+00  0.000E+00  0.000E+00  1.07555E+03  1.909E+00  9.636E+00  7.227E-02  1.955E+00
   1    3    6     3     2    1.7175E+00  2.4905E-01   1.4684E+00  0.000E+00  0.000E+00  0.000E+00  1.07264E+03  1.727E+00  8.909E+00  6.682E-02  1.864E+00
   1    3    7     3     3    1.4684E+00  1.9718E-01   1.2712E+00  0.000E+00  0.000E+00  0.000E+00  1.06987E+03  1.555E+00  8.218E+00  5.547E-02  1.777E+00
   1    4    8     3     4    1.2712E+00  2.2567E-01   1.0456E+00  0.000E+00  0.000E+00  0.000E+00  1.06682E+03  1.364E+00  7.455E+00  6.709E-02  1.682E+00
   1    5    8     3     5    1.0456E+00  1.5790E-01   8.8768E-01  0.000E+00  0.000E+00  0.000E+00  1.06362E+03  1.164E+00  6.655E+00  4.991E-02  1.582E+00
   1    6    8     3     6    8.8768E-01  5.5980E-02   8.3170E-01  0.000E+00  0.000E+00  0.000E+00  1.06158E+03  1.036E+00  6.145E+00  1.844E-02  1.518E+00
   1    5   10     4     1    1.0000E+01  9.0919E-02   9.9091E+00  0.000E+00  0.000E+00  0.000E+00  1.07836E+03  6.368E-01  1.000E+01  2.500E-02  1.212E+00
   1    5    9     4     2    9.9091E+00  1.8158E-01   9.7275E+00  0.000E+00  0.000E+00  0.000E+00  1.07154E+03  6.315E-01  1.000E+01  5.000E-02  1.211E+00
   1    6    8     4     3    9.7275E+00  1.2689E-01   9.6006E+00  0.000E+00  0.000E+00  0.000E+00  1.06381E+03  6.256E-01  1.000E+01  3.500E-02  1.209E+00
   1    6    8     5     1    1.0432E+01  2.2686E-01   1.0205E+01  0.000E+00  0.000E+00  0.000E+00  1.05868E+03  6.790E-01  1.542E+01  6.166E-02  1.226E+00
   1    7    7     5     2    1.0205E+01  2.7894E-01   9.9265E+00  0.000E+00  0.000E+00  0.000E+00  1.05417E+03  6.732E-01  1.519E+01  7.594E-02  1.224E+00
   1    8    7     5     3    9.9265E+00  1.9221E-01   9.7343E+00  0.000E+00  0.000E+00  0.000E+00  1.04992E+03  6.676E-01  1.497E+01  5.241E-02  1.223E+00
   1    8    6     5     4    9.7343E+00  1.3577E-01   9.5985E+00  0.000E+00  0.000E+00  0.000E+00  1.04691E+03  6.637E-01  1.482E+01  3.706E-02  1.221E+00
   1    9    6     6     1    3.2957E+01  2.6627E-01   3.2691E+01  0.000E+00  0.000E+00  0.000E+00  1.04417E+03  1.438E+00  1.200E+01  6.000E-02  1.479E+00
   1   10    7     6     2    3.2691E+01  2.6585E-01   3.2425E+01  0.000E+00  0.000E+00  0.000E+00  1.03961E+03  1.431E+00  1.200E+01  6.000E-02  1.477E+00
   1   11    7     6     3    3.2425E+01  2.6542E-01   3.2160E+01  0.000E+00  0.000E+00  0.000E+00  1.03506E+03  1.424E+00  1.200E+01  6.000E-02  1.475E+00
   1   12    7     6     4    3.2160E+01  2.6500E-01   3.1895E+01  0.000E+00  0.000E+00  0.000E+00  1.03051E+03  1.417E+00  1.200E+01  6.000E-02  1.472E+00
   1   13    7     6     5    3.1895E+01  3.4365E-03   3.1891E+01  0.000E+00  0.000E+00  0.000E+00  1.02732E+03  1.413E+00  1.200E+01  2.400E-02  4.773E-02
   1   14    9     7     1    1.5000E+02  1.3317E+00   1.4867E+02  0.000E+00  0.000E+00  0.000E+00  1.03987E+03  2.288E+00  5.529E+01  5.593E-01  7.936E-01
   1   13    8     7     2    1.4867E+02  1.8134E+00   1.4685E+02  0.000E+00  0.000E+00  0.000E+00  1.03478E+03  2.279E+00  5.526E+01  6.148E-01  9.832E-01
   1   13    7     7     3    1.4685E+02  1.4024E+00   1.4545E+02  0.000E+00  0.000E+00  0.000E+00  1.02969E+03  2.271E+00  5.522E+01  5.585E-01  8.370E-01
   1   13    6     8     1    1.7734E+02  8.6052E-01   1.7648E+02  0.000E+00  0.000E+00  0.000E+00  1.02487E+03  2.997E+00  4.345E+01  4.428E-01  6.478E-01
   1   13    5     8     2    1.7648E+02  9.5667E-02   1.7639E+02  0.000E+00  0.000E+00  0.000E+00  1.01862E+03  2.994E+00  4.341E+01  4.423E-01  7.209E-02
   1   13    4     8     3    1.7639E+02 -2.9585E+00   1.7935E+02  0.000E+00  0.000E+00  0.000E+00  1.01238E+03  3.003E+00  4.354E+01  4.437E+00 -2.223E-01
   1   13    3     8     4    1.7935E+02 -4.0685E+00   1.8341E+02  0.000E+00  0.000E+00  0.000E+00  1.00615E+03  3.025E+00  4.386E+01  4.469E+00 -3.034E-01
   1   13    2     8     5    1.8341E+02 -3.0049E+00   1.8642E+02  0.000E+00  0.000E+00  0.000E+00  9.99922E+02  3.047E+00  4.418E+01  4.502E+00 -2.225E-01
   1   13    1     8     6    1.8642E+02 -2.2626E+00   1.8868E+02  0.000E+00  0.000E+00  0.000E+00  9.94938E+02  3.063E+00  4.441E+01  2.716E+00 -2.777E-01



 UBDSV3 SAVING "           GW ET" ON UNIT  61 AT TIME STEP  9, STRESS PERIOD   5
 UBDSV3 SAVING "    UZF RECHARGE" ON UNIT  61 AT TIME STEP  9, STRESS PERIOD   5
 UBDSV3 SAVING " SURFACE LEAKAGE" ON UNIT  61 AT TIME STEP  9, STRESS PERIOD   5
 UBDSV3 SAVING "       HORT+DUNN" ON UNIT  61 AT TIME STEP  9, STRESS PERIOD   5
 UBDSV3 SAVING "  STORAGE CHANGE" ON UNIT  61 AT TIME STEP  9, STRESS PERIOD   5


UNSATURATED ZONE PACKAGE VOLUMETRIC BUDGET FOR  TIME STEP     9 STRESS PERIOD    5
  ------------------------------------------------------------------------------



     CUMULATIVE VOLUMES      L**3       RATES FOR THIS TIME STEP      L**3/T
     ------------------                 ------------------------

           IN:                                      IN:
           ---                                      ---
        INFILTRATION =    42824495.5061          INFILTRATION =          37.0287

          OUT:                                     OUT:
          ----                                     ----
              UZF ET =    21142573.4143                UZF ET =          10.2846
        UZF RECHARGE =       73224.0000          UZF RECHARGE =       0.0000E+00

            IN - OUT =    21608698.0918              IN - OUT =          26.7441

          STORAGE:                                 STORAGE:
          --------                                 --------
      STORAGE CHANGE =    21608730.0783        STORAGE CHANGE =          26.7441

 PERCENT DISCREPANCY IS DIFFERENCE BETWEEN IN-OUT MINUS CHANGE IN STORAGE
 DIVIDED BY THE AVERAGE OF IN AND OUT TIMES 100

 PERCENT DISCREPANCY =          -0.00     PERCENT DISCREPANCY =           0.00






 

            AG WELLS      PERIOD    5   STEP   9
 AG WELL      1   LAYER   1   ROW     6   COL     4   RATE   -0.592554    
 AG WELL      2   LAYER   1   ROW     6   COL     5   RATE   -0.574247    
 AG WELL      3   LAYER   1   ROW     7   COL     4   RATE    -15.1956    
 AG WELL      4   LAYER   1   ROW     7   COL     5   RATE   -0.563153    
 AG WELL      5   LAYER   1   ROW     8   COL     4   RATE    -15.1956    
 AG WELL      6   LAYER   1   ROW     8   COL     5   RATE   -0.500000    
 
 

        GW IRRIGATION     PERIOD    5   STEP   9
 AG WELL      1   ROW     6   COL     4   RATE    0.592554    
 AG WELL      2   ROW     6   COL     5   RATE    0.574247    
 AG WELL      3   ROW     7   COL     4   RATE     15.1956    
 AG WELL      4   ROW     7   COL     5   RATE    0.563153    
 AG WELL      5   ROW     8   COL     4   RATE     15.1956    
 AG WELL      6   ROW     8   COL     5   RATE    0.500000    
 
1
  VOLUMETRIC BUDGET FOR ENTIRE MODEL AT END OF TIME STEP    9, STRESS PERIOD   5
  ------------------------------------------------------------------------------

     CUMULATIVE VOLUMES      L**3       RATES FOR THIS TIME STEP      L**3/T
     ------------------                 ------------------------

           IN:                                      IN:
           ---                                      ---
               AG WELLS  =     4498580.5000                 AG WELLS  =          32.6212
      DIVERSION SEGMENTS =           0.0000        DIVERSION SEGMENTS =           0.0000
           GW IRRIGATION =           0.0000             GW IRRIGATION =           0.0000
           SW IRRIGATION =           0.0000             SW IRRIGATION =           0.0000
        SYSTEM LOSSES GW =           0.0000          SYSTEM LOSSES GW =           0.0000
        SYSTEM LOSSES SW =           0.0000          SYSTEM LOSSES SW =           0.0000

                TOTAL IN =     4498580.5000                  TOTAL IN =          32.6212

          OUT:                                     OUT:
          ----                                     ----
               AG WELLS  =           0.0000                 AG WELLS  =           0.0000
      DIVERSION SEGMENTS =           0.0000        DIVERSION SEGMENTS =           0.0000
           GW IRRIGATION =     4498580.5000             GW IRRIGATION =          32.6212
           SW IRRIGATION =           0.0000             SW IRRIGATION =           0.0000
        SYSTEM LOSSES GW =           0.0000          SYSTEM LOSSES GW =           0.0000
        SYSTEM LOSSES SW =           0.0000          SYSTEM LOSSES SW =           0.0000

               TOTAL OUT =     4498580.5000                 TOTAL OUT =          32.6212

                IN - OUT =           0.0000                  IN - OUT =           0.0000

     PERCENT DISCREPANCY =           0.00         PERCENT DISCREPANCY =           0.00



1
  VOLUMETRIC BUDGET FOR ENTIRE MODEL AT END OF TIME STEP    9, STRESS PERIOD   5
  ------------------------------------------------------------------------------

     CUMULATIVE VOLUMES      L**3       RATES FOR THIS TIME STEP      L**3/T
     ------------------                 ------------------------

           IN:                                      IN:
           ---                                      ---
             STORAGE     =    10948352.0000               STORAGE     =          34.6113
       CONSTANT HEAD     =           0.0000         CONSTANT HEAD     =           0.0000
     HEAD DEP BOUNDS     =     2501860.2500       HEAD DEP BOUNDS     =           0.2855
      STREAM LEAKAGE     =   108133984.0000        STREAM LEAKAGE     =          11.6127
        UZF RECHARGE     =       73223.9531          UZF RECHARGE     =           0.0000
               GW ET     =           0.0000                 GW ET     =           0.0000
     SURFACE LEAKAGE     =           0.0000       SURFACE LEAKAGE     =           0.0000
           AG WELLS      =           0.0000             AG WELLS      =           0.0000

                TOTAL IN =   121657416.0000                  TOTAL IN =          46.5095

          OUT:                                     OUT:
          ----                                     ----
             STORAGE     =    23492066.0000               STORAGE     =           1.1790
       CONSTANT HEAD     =           0.0000         CONSTANT HEAD     =           0.0000
     HEAD DEP BOUNDS     =     2561402.5000       HEAD DEP BOUNDS     =           0.2953
      STREAM LEAKAGE     =    91022328.0000        STREAM LEAKAGE     =          12.2945
        UZF RECHARGE     =           0.0000          UZF RECHARGE     =           0.0000
               GW ET     =       87988.6094                 GW ET     =           0.1195
     SURFACE LEAKAGE     =           0.0000       SURFACE LEAKAGE     =           0.0000
           AG WELLS      =     4498580.5000             AG WELLS      =          32.6212

               TOTAL OUT =   121662368.0000                 TOTAL OUT =          46.5095

                IN - OUT =       -4952.0000                  IN - OUT =           0.0000

     PERCENT DISCREPANCY =          -0.00         PERCENT DISCREPANCY =           0.00






         TIME SUMMARY AT END OF TIME STEP    9 IN STRESS PERIOD    5
                    SECONDS     MINUTES      HOURS       DAYS        YEARS
                    -----------------------------------------------------------
   TIME STEP LENGTH  87667.      1461.1      24.352      1.0147     2.77799E-03
 STRESS PERIOD TIME 7.89000E+05  13150.      219.17      9.1319     2.50019E-02
         TOTAL TIME 8.76540E+06 1.46090E+05  2434.8      101.45     0.27776    
1
 
 SOLVING FOR HEAD 
                                                   Max.-Head-Change                         Max.-Flux-Residual
  Residual-Control   Outer-Iter.   Inner-Iter.     Column Row Layer    Maximum-Head-Change  Column Row Layer    Maximum-Flux-Residual          L2-NORM 
          0                 1           2             5    7     1      -0.1308714098E-01       5    7    1        -0.7130940110E+00      0.1766502618E+01
          0                 2           2             5    7     1       0.1273011052E-02       5    7    1         0.7130863990E-01      0.1757315475E+00
          0                 3           1             5    7     1      -0.8668735326E-04       5    7    1        -0.4991614152E-02      0.1221689464E-01

    ------------------------------------------------
       NWT REQUIRED            3 OUTER ITERATIONS 
       AND A TOTAL OF          5 INNER ITERATIONS.
    ------------------------------------------------

 OUTPUT CONTROL FOR STRESS PERIOD    5   TIME STEP   10
    PRINT BUDGET
    SAVE BUDGET
 UBDSV1 SAVING "         STORAGE" ON UNIT 102 AT TIME STEP 10, STRESS PERIOD   5
 UBDSV2 SAVING "   CONSTANT HEAD" ON UNIT 102 AT TIME STEP 10, STRESS PERIOD   5
 UBDSV1 SAVING "FLOW RIGHT FACE " ON UNIT 102 AT TIME STEP 10, STRESS PERIOD   5
 UBDSV1 SAVING "FLOW FRONT FACE " ON UNIT 102 AT TIME STEP 10, STRESS PERIOD   5

  HEAD DEP BOUNDS   PERIOD    5   STEP    10
 BOUNDARY      1   LAYER   1   ROW    13   COL     1   RATE   -0.295113    
 BOUNDARY      2   LAYER   1   ROW    14   COL     9   RATE    0.285477    



 STREAM LISTING     PERIOD      5   STEP       10

 LAYER ROW COL. STREAM  RCH.  FLOW INTO     FLOW TO   FLOW OUT OF   OVRLND.     DIRECT     STREAM       STREAM     STREAM     STREAM   STREAMBED  STREAMBED
                SEG.NO.  NO.  STRM. RCH.    AQUIFER    STRM. RCH.    RUNOFF     PRECIP       ET          HEAD       DEPTH      WIDTH   CONDCTNC.   GRADIENT

   1    1    1     1     1    2.8000E+01  2.5860E-01   2.7742E+01  0.000E+00  0.000E+00  0.000E+00  1.09427E+03  1.221E+00  1.361E+01  6.126E-02  1.407E+00
   1    2    2     1     2    2.7742E+01  4.0002E-01   2.7341E+01  0.000E+00  0.000E+00  0.000E+00  1.08928E+03  1.217E+00  1.355E+01  9.487E-02  1.406E+00
   1    3    3     1     3    2.7341E+01  3.4070E-01   2.7001E+01  0.000E+00  0.000E+00  0.000E+00  1.08363E+03  1.212E+00  1.348E+01  8.090E-02  1.404E+00
   1    3    4     1     4    2.7001E+01  3.1335E-01   2.6687E+01  0.000E+00  0.000E+00  0.000E+00  1.07861E+03  1.207E+00  1.342E+01  7.448E-02  1.402E+00
   1    4    5     2     1    2.4687E+01  3.2711E-01   2.4360E+01  0.000E+00  0.000E+00  0.000E+00  1.07313E+03  1.194E+00  1.200E+01  7.800E-02  1.398E+00
   1    5    6     2     2    2.4360E+01  2.5111E-01   2.4109E+01  0.000E+00  0.000E+00  0.000E+00  1.06769E+03  1.185E+00  1.200E+01  6.000E-02  1.395E+00
   1    6    6     2     3    2.4109E+01  2.5067E-01   2.3859E+01  0.000E+00  0.000E+00  0.000E+00  1.06297E+03  1.178E+00  1.200E+01  6.000E-02  1.393E+00
   1    7    6     2     4    2.3859E+01  2.5023E-01   2.3608E+01  0.000E+00  0.000E+00  0.000E+00  1.05825E+03  1.170E+00  1.200E+01  6.000E-02  1.390E+00
   1    8    6     2     5    2.3608E+01  2.4978E-01   2.3359E+01  0.000E+00  0.000E+00  0.000E+00  1.05352E+03  1.163E+00  1.200E+01  6.000E-02  1.388E+00
   1    3    5     3     1    2.0000E+00  2.8252E-01   1.7175E+00  0.000E+00  0.000E+00  0.000E+00  1.07555E+03  1.909E+00  9.636E+00  7.227E-02  1.955E+00
   1    3    6     3     2    1.7175E+00  2.4905E-01   1.4684E+00  0.000E+00  0.000E+00  0.000E+00  1.07264E+03  1.727E+00  8.909E+00  6.682E-02  1.864E+00
   1    3    7     3     3    1.4684E+00  1.9718E-01   1.2712E+00  0.000E+00  0.000E+00  0.000E+00  1.06987E+03  1.555E+00  8.218E+00  5.547E-02  1.777E+00
   1    4    8     3     4    1.2712E+00  2.2567E-01   1.0456E+00  0.000E+00  0.000E+00  0.000E+00  1.06682E+03  1.364E+00  7.455E+00  6.709E-02  1.682E+00
   1    5    8     3     5    1.0456E+00  1.5790E-01   8.8768E-01  0.000E+00  0.000E+00  0.000E+00  1.06362E+03  1.164E+00  6.655E+00  4.991E-02  1.582E+00
   1    6    8     3     6    8.8768E-01  5.5980E-02   8.3170E-01  0.000E+00  0.000E+00  0.000E+00  1.06158E+03  1.036E+00  6.145E+00  1.844E-02  1.518E+00
   1    5   10     4     1    1.0000E+01  9.0919E-02   9.9091E+00  0.000E+00  0.000E+00  0.000E+00  1.07836E+03  6.368E-01  1.000E+01  2.500E-02  1.212E+00
   1    5    9     4     2    9.9091E+00  1.8158E-01   9.7275E+00  0.000E+00  0.000E+00  0.000E+00  1.07154E+03  6.315E-01  1.000E+01  5.000E-02  1.211E+00
   1    6    8     4     3    9.7275E+00  1.2689E-01   9.6006E+00  0.000E+00  0.000E+00  0.000E+00  1.06381E+03  6.256E-01  1.000E+01  3.500E-02  1.209E+00
   1    6    8     5     1    1.0432E+01  2.2686E-01   1.0205E+01  0.000E+00  0.000E+00  0.000E+00  1.05868E+03  6.790E-01  1.542E+01  6.166E-02  1.226E+00
   1    7    7     5     2    1.0205E+01  2.7894E-01   9.9265E+00  0.000E+00  0.000E+00  0.000E+00  1.05417E+03  6.732E-01  1.519E+01  7.594E-02  1.224E+00
   1    8    7     5     3    9.9265E+00  1.9221E-01   9.7343E+00  0.000E+00  0.000E+00  0.000E+00  1.04992E+03  6.676E-01  1.497E+01  5.241E-02  1.223E+00
   1    8    6     5     4    9.7343E+00  1.3577E-01   9.5985E+00  0.000E+00  0.000E+00  0.000E+00  1.04691E+03  6.637E-01  1.482E+01  3.706E-02  1.221E+00
   1    9    6     6     1    3.2957E+01  2.6627E-01   3.2691E+01  0.000E+00  0.000E+00  0.000E+00  1.04417E+03  1.438E+00  1.200E+01  6.000E-02  1.479E+00
   1   10    7     6     2    3.2691E+01  2.6585E-01   3.2425E+01  0.000E+00  0.000E+00  0.000E+00  1.03961E+03  1.431E+00  1.200E+01  6.000E-02  1.477E+00
   1   11    7     6     3    3.2425E+01  2.6542E-01   3.2160E+01  0.000E+00  0.000E+00  0.000E+00  1.03506E+03  1.424E+00  1.200E+01  6.000E-02  1.475E+00
   1   12    7     6     4    3.2160E+01  2.6500E-01   3.1895E+01  0.000E+00  0.000E+00  0.000E+00  1.03051E+03  1.417E+00  1.200E+01  6.000E-02  1.472E+00
   1   13    7     6     5    3.1895E+01  3.4296E-03   3.1891E+01  0.000E+00  0.000E+00  0.000E+00  1.02732E+03  1.413E+00  1.200E+01  2.400E-02  4.763E-02
   1   14    9     7     1    1.5000E+02  1.3317E+00   1.4867E+02  0.000E+00  0.000E+00  0.000E+00  1.03987E+03  2.288E+00  5.529E+01  5.593E-01  7.937E-01
   1   13    8     7     2    1.4867E+02  1.8133E+00   1.4686E+02  0.000E+00  0.000E+00  0.000E+00  1.03478E+03  2.279E+00  5.526E+01  6.148E-01  9.832E-01
   1   13    7     7     3    1.4686E+02  1.4022E+00   1.4545E+02  0.000E+00  0.000E+00  0.000E+00  1.02969E+03  2.271E+00  5.522E+01  5.585E-01  8.369E-01
   1   13    6     8     1    1.7734E+02  8.6104E-01   1.7648E+02  0.000E+00  0.000E+00  0.000E+00  1.02487E+03  2.997E+00  4.345E+01  4.428E-01  6.482E-01
   1   13    5     8     2    1.7648E+02  9.6265E-02   1.7639E+02  0.000E+00  0.000E+00  0.000E+00  1.01862E+03  2.994E+00  4.341E+01  4.423E-01  7.254E-02
   1   13    4     8     3    1.7639E+02 -2.9311E+00   1.7932E+02  0.000E+00  0.000E+00  0.000E+00  1.01238E+03  3.003E+00  4.354E+01  4.437E+00 -2.202E-01
   1   13    3     8     4    1.7932E+02 -4.0402E+00   1.8336E+02  0.000E+00  0.000E+00  0.000E+00  1.00615E+03  3.025E+00  4.386E+01  4.469E+00 -3.013E-01
   1   13    2     8     5    1.8336E+02 -2.9745E+00   1.8633E+02  0.000E+00  0.000E+00  0.000E+00  9.99921E+02  3.046E+00  4.417E+01  4.501E+00 -2.203E-01
   1   13    1     8     6    1.8633E+02 -2.2500E+00   1.8858E+02  0.000E+00  0.000E+00  0.000E+00  9.94937E+02  3.062E+00  4.441E+01  2.715E+00 -2.762E-01



 UBDSV3 SAVING "           GW ET" ON UNIT  61 AT TIME STEP 10, STRESS PERIOD   5
 UBDSV3 SAVING "    UZF RECHARGE" ON UNIT  61 AT TIME STEP 10, STRESS PERIOD   5
 UBDSV3 SAVING " SURFACE LEAKAGE" ON UNIT  61 AT TIME STEP 10, STRESS PERIOD   5
 UBDSV3 SAVING "       HORT+DUNN" ON UNIT  61 AT TIME STEP 10, STRESS PERIOD   5
 UBDSV3 SAVING "  STORAGE CHANGE" ON UNIT  61 AT TIME STEP 10, STRESS PERIOD   5


UNSATURATED ZONE PACKAGE VOLUMETRIC BUDGET FOR  TIME STEP    10 STRESS PERIOD    5
  ------------------------------------------------------------------------------



     CUMULATIVE VOLUMES      L**3       RATES FOR THIS TIME STEP      L**3/T
     ------------------                 ------------------------

           IN:                                      IN:
           ---                                      ---
        INFILTRATION =    43401779.5012          INFILTRATION =           6.5850

          OUT:                                     OUT:
          ----                                     ----
              UZF ET =    22044799.2297                UZF ET =          10.2915
        UZF RECHARGE =       73224.0000          UZF RECHARGE =       0.0000E+00

            IN - OUT =    21283756.2715              IN - OUT =          -3.7066

          STORAGE:                                 STORAGE:
          --------                                 --------
      STORAGE CHANGE =    21284462.2321        STORAGE CHANGE =          -3.6989

 PERCENT DISCREPANCY IS DIFFERENCE BETWEEN IN-OUT MINUS CHANGE IN STORAGE
 DIVIDED BY THE AVERAGE OF IN AND OUT TIMES 100

 PERCENT DISCREPANCY =          -0.00     PERCENT DISCREPANCY =          -0.07






 

            AG WELLS      PERIOD    5   STEP  10
 AG WELL      1   LAYER   1   ROW     6   COL     4   RATE   -0.592965    
 AG WELL      2   LAYER   1   ROW     6   COL     5   RATE   -0.575957    
 AG WELL      3   LAYER   1   ROW     7   COL     4   RATE     0.00000    
 AG WELL      4   LAYER   1   ROW     7   COL     5   RATE   -0.564885    
 AG WELL      5   LAYER   1   ROW     8   COL     4   RATE     0.00000    
 AG WELL      6   LAYER   1   ROW     8   COL     5   RATE   -0.443682    
 
 

        GW IRRIGATION     PERIOD    5   STEP  10
 AG WELL      1   ROW     6   COL     4   RATE    0.592965    
 AG WELL      2   ROW     6   COL     5   RATE    0.575957    
 AG WELL      3   ROW     7   COL     4   RATE     0.00000    
 AG WELL      4   ROW     7   COL     5   RATE    0.564885    
 AG WELL      5   ROW     8   COL     4   RATE     0.00000    
 AG WELL      6   ROW     8   COL     5   RATE    0.443682    
 
1
  VOLUMETRIC BUDGET FOR ENTIRE MODEL AT END OF TIME STEP   10, STRESS PERIOD   5
  ------------------------------------------------------------------------------

     CUMULATIVE VOLUMES      L**3       RATES FOR THIS TIME STEP      L**3/T
     ------------------                 ------------------------

           IN:                                      IN:
           ---                                      ---
               AG WELLS  =     4689473.5000                 AG WELLS  =           2.1775
      DIVERSION SEGMENTS =           0.0000        DIVERSION SEGMENTS =           0.0000
           GW IRRIGATION =           0.0000             GW IRRIGATION =           0.0000
           SW IRRIGATION =           0.0000             SW IRRIGATION =           0.0000
        SYSTEM LOSSES GW =           0.0000          SYSTEM LOSSES GW =           0.0000
        SYSTEM LOSSES SW =           0.0000          SYSTEM LOSSES SW =           0.0000

                TOTAL IN =     4689473.5000                  TOTAL IN =           2.1775

          OUT:                                     OUT:
          ----                                     ----
               AG WELLS  =           0.0000                 AG WELLS  =           0.0000
      DIVERSION SEGMENTS =           0.0000        DIVERSION SEGMENTS =           0.0000
           GW IRRIGATION =     4689473.5000             GW IRRIGATION =           2.1775
           SW IRRIGATION =           0.0000             SW IRRIGATION =           0.0000
        SYSTEM LOSSES GW =           0.0000          SYSTEM LOSSES GW =           0.0000
        SYSTEM LOSSES SW =           0.0000          SYSTEM LOSSES SW =           0.0000

               TOTAL OUT =     4689473.5000                 TOTAL OUT =           2.1775

                IN - OUT =           0.0000                  IN - OUT =           0.0000

     PERCENT DISCREPANCY =           0.00         PERCENT DISCREPANCY =           0.00



1
  VOLUMETRIC BUDGET FOR ENTIRE MODEL AT END OF TIME STEP   10, STRESS PERIOD   5
  ------------------------------------------------------------------------------

     CUMULATIVE VOLUMES      L**3       RATES FOR THIS TIME STEP      L**3/T
     ------------------                 ------------------------

           IN:                                      IN:
           ---                                      ---
             STORAGE     =    11394782.0000               STORAGE     =           5.0924
       CONSTANT HEAD     =           0.0000         CONSTANT HEAD     =           0.0000
     HEAD DEP BOUNDS     =     2526887.0000       HEAD DEP BOUNDS     =           0.2855
      STREAM LEAKAGE     =   109152096.0000        STREAM LEAKAGE     =          11.6135
        UZF RECHARGE     =       73223.9531          UZF RECHARGE     =           0.0000
               GW ET     =           0.0000                 GW ET     =           0.0000
     SURFACE LEAKAGE     =           0.0000       SURFACE LEAKAGE     =           0.0000
           AG WELLS      =           0.0000             AG WELLS      =           0.0000

                TOTAL IN =   123146992.0000                  TOTAL IN =          16.9913

          OUT:                                     OUT:
          ----                                     ----
             STORAGE     =    23686446.0000               STORAGE     =           2.2173
       CONSTANT HEAD     =           0.0000         CONSTANT HEAD     =           0.0000
     HEAD DEP BOUNDS     =     2587274.0000       HEAD DEP BOUNDS     =           0.2951
      STREAM LEAKAGE     =    92091488.0000        STREAM LEAKAGE     =          12.1957
        UZF RECHARGE     =           0.0000          UZF RECHARGE     =           0.0000
               GW ET     =       97185.5156                 GW ET     =           0.1049
     SURFACE LEAKAGE     =           0.0000       SURFACE LEAKAGE     =           0.0000
           AG WELLS      =     4689473.5000             AG WELLS      =           2.1775

               TOTAL OUT =   123151864.0000                 TOTAL OUT =          16.9905

                IN - OUT =       -4872.0000                  IN - OUT =       8.3160E-04

     PERCENT DISCREPANCY =          -0.00         PERCENT DISCREPANCY =           0.00






         TIME SUMMARY AT END OF TIME STEP   10 IN STRESS PERIOD    5
                    SECONDS     MINUTES      HOURS       DAYS        YEARS
                    -----------------------------------------------------------
   TIME STEP LENGTH  87667.      1461.1      24.352      1.0147     2.77799E-03
 STRESS PERIOD TIME 8.76667E+05  14611.      243.52      10.147     2.77799E-02
         TOTAL TIME 8.85306E+06 1.47551E+05  2459.2      102.47     0.28054    
1
 
 SOLVING FOR HEAD 
                                                   Max.-Head-Change                         Max.-Flux-Residual
  Residual-Control   Outer-Iter.   Inner-Iter.     Column Row Layer    Maximum-Head-Change  Column Row Layer    Maximum-Flux-Residual          L2-NORM 
          0                 1           2             5    8     1      -0.1255527403E-01       5    8    1        -0.6899947241E+00      0.1678838844E+01
          0                 2           2             5    8     1       0.1221272340E-02       5    8    1         0.6899854086E-01      0.1670733091E+00
          0                 3           1             5    8     1      -0.8316424606E-04       5    8    1        -0.4829908759E-02      0.1162039431E-01

    ------------------------------------------------
       NWT REQUIRED            3 OUTER ITERATIONS 
       AND A TOTAL OF          5 INNER ITERATIONS.
    ------------------------------------------------

 NO OUTPUT CONTROL FOR STRESS PERIOD    5   TIME STEP   11
 
 SOLVING FOR HEAD 
                                                   Max.-Head-Change                         Max.-Flux-Residual
  Residual-Control   Outer-Iter.   Inner-Iter.     Column Row Layer    Maximum-Head-Change  Column Row Layer    Maximum-Flux-Residual          L2-NORM 
          0                 1           2             5    8     1      -0.1208989782E-01       5    8    1        -0.6639924335E+00      0.1594713001E+01
          0                 2           2             5    8     1       0.1176004979E-02       5    8    1         0.6639838455E-01      0.1587551693E+00
          0                 3           1             5    8     1      -0.8008169598E-04       5    8    1        -0.4647897051E-02      0.1104705649E-01

    ------------------------------------------------
       NWT REQUIRED            3 OUTER ITERATIONS 
       AND A TOTAL OF          5 INNER ITERATIONS.
    ------------------------------------------------

 NO OUTPUT CONTROL FOR STRESS PERIOD    5   TIME STEP   12
 
 SOLVING FOR HEAD 
                                                   Max.-Head-Change                         Max.-Flux-Residual
  Residual-Control   Outer-Iter.   Inner-Iter.     Column Row Layer    Maximum-Head-Change  Column Row Layer    Maximum-Flux-Residual          L2-NORM 
          0                 1           2             5    8     1      -0.1157758645E-01       5    8    1        -0.6354218819E+00      0.1515597877E+01
          0                 2           2             5    8     1       0.1126172154E-02       5    8    1         0.6354140568E-01      0.1509271810E+00
          0                 3           1             5    8     1      -0.7668825449E-04       5    8    1        -0.4447907722E-02      0.1050687298E-01

    ------------------------------------------------
       NWT REQUIRED            3 OUTER ITERATIONS 
       AND A TOTAL OF          5 INNER ITERATIONS.
    ------------------------------------------------

 NO OUTPUT CONTROL FOR STRESS PERIOD    5   TIME STEP   13
 
 SOLVING FOR HEAD 
                                                   Max.-Head-Change                         Max.-Flux-Residual
  Residual-Control   Outer-Iter.   Inner-Iter.     Column Row Layer    Maximum-Head-Change  Column Row Layer    Maximum-Flux-Residual          L2-NORM 
          0                 1           2             5    8     1      -0.1105625788E-01       5    8    1        -0.6063783910E+00      0.1441806481E+01
          0                 2           2             5    8     1       0.1075462166E-02       5    8    1         0.6063713044E-01      0.1436209807E+00
          0                 3           1             5    8     1      -0.7323508164E-04       5    8    1        -0.4244607666E-02      0.1000220358E-01

    ------------------------------------------------
       NWT REQUIRED            3 OUTER ITERATIONS 
       AND A TOTAL OF          5 INNER ITERATIONS.
    ------------------------------------------------

 NO OUTPUT CONTROL FOR STRESS PERIOD    5   TIME STEP   14
 
 SOLVING FOR HEAD 
                                                   Max.-Head-Change                         Max.-Flux-Residual
  Residual-Control   Outer-Iter.   Inner-Iter.     Column Row Layer    Maximum-Head-Change  Column Row Layer    Maximum-Flux-Residual          L2-NORM 
          0                 1           2             5    7     1      -0.1058492871E-01       5    8    1        -0.5778103183E+00      0.1373218331E+01
          0                 2           2             5    7     1       0.1029618199E-02       5    8    1         0.5778039226E-01      0.1368270744E+00
          0                 3           1             5    7     1      -0.7011316238E-04       5    8    1        -0.4044635261E-02      0.9532392061E-02

    ------------------------------------------------
       NWT REQUIRED            3 OUTER ITERATIONS 
       AND A TOTAL OF          5 INNER ITERATIONS.
    ------------------------------------------------

 NO OUTPUT CONTROL FOR STRESS PERIOD    5   TIME STEP   15
 
 SOLVING FOR HEAD 
                                                   Max.-Head-Change                         Max.-Flux-Residual
  Residual-Control   Outer-Iter.   Inner-Iter.     Column Row Layer    Maximum-Head-Change  Column Row Layer    Maximum-Flux-Residual          L2-NORM 
          0                 1           2             5    7     1      -0.1016655312E-01       5    7    1        -0.5507446286E+00      0.1309543175E+01
          0                 2           2             5    7     1       0.9889222420E-03       5    7    1         0.5507403469E-01      0.1305168226E+00
          0                 3           1             5    7     1      -0.6734191434E-04       5    7    1        -0.3855188133E-02      0.9096298630E-02

    ------------------------------------------------
       NWT REQUIRED            3 OUTER ITERATIONS 
       AND A TOTAL OF          5 INNER ITERATIONS.
    ------------------------------------------------

 NO OUTPUT CONTROL FOR STRESS PERIOD    5   TIME STEP   16
 
 SOLVING FOR HEAD 
                                                   Max.-Head-Change                         Max.-Flux-Residual
  Residual-Control   Outer-Iter.   Inner-Iter.     Column Row Layer    Maximum-Head-Change  Column Row Layer    Maximum-Flux-Residual          L2-NORM 
          0                 1           2             5    7     1      -0.9771170017E-02       5    7    1        -0.5289003640E+00      0.1250482037E+01
          0                 2           2             5    7     1       0.9504627706E-03       5    7    1         0.5288964476E-01      0.1246614575E+00
          0                 3           1             5    7     1      -0.6472296436E-04       5    7    1        -0.3702280429E-02      0.8690583750E-02

    ------------------------------------------------
       NWT REQUIRED            3 OUTER ITERATIONS 
       AND A TOTAL OF          5 INNER ITERATIONS.
    ------------------------------------------------

 NO OUTPUT CONTROL FOR STRESS PERIOD    5   TIME STEP   17
 
 SOLVING FOR HEAD 
                                                   Max.-Head-Change                         Max.-Flux-Residual
  Residual-Control   Outer-Iter.   Inner-Iter.     Column Row Layer    Maximum-Head-Change  Column Row Layer    Maximum-Flux-Residual          L2-NORM 
          0                 1           2             5    7     1      -0.9573669639E-02       5    7    1        -0.5082950847E+00      0.1164187476E+01
          0                 2           2             5    7     1       0.9312546441E-03       5    7    1         0.5082934840E-01      0.1160670754E+00
          0                 3           1             5    7     1      -0.6341509673E-04       5    7    1        -0.3558057446E-02      0.8092095105E-02

    ------------------------------------------------
       NWT REQUIRED            3 OUTER ITERATIONS 
       AND A TOTAL OF          5 INNER ITERATIONS.
    ------------------------------------------------

 NO OUTPUT CONTROL FOR STRESS PERIOD    5   TIME STEP   18
 
 SOLVING FOR HEAD 
                                                   Max.-Head-Change                         Max.-Flux-Residual
  Residual-Control   Outer-Iter.   Inner-Iter.     Column Row Layer    Maximum-Head-Change  Column Row Layer    Maximum-Flux-Residual          L2-NORM 
          0                 1           2             5    7     1      -0.9373772568E-02       5    7    1        -0.4979798057E+00      0.1124861135E+01
          0                 2           2             5    7     1       0.9118100708E-03       5    7    1         0.4979781745E-01      0.1121783711E+00
          0                 3           1             5    7     1      -0.6209098859E-04       5    7    1        -0.3485850274E-02      0.7823957925E-02

    ------------------------------------------------
       NWT REQUIRED            3 OUTER ITERATIONS 
       AND A TOTAL OF          5 INNER ITERATIONS.
    ------------------------------------------------

 NO OUTPUT CONTROL FOR STRESS PERIOD    5   TIME STEP   19
 
 SOLVING FOR HEAD 
                                                   Max.-Head-Change                         Max.-Flux-Residual
  Residual-Control   Outer-Iter.   Inner-Iter.     Column Row Layer    Maximum-Head-Change  Column Row Layer    Maximum-Flux-Residual          L2-NORM 
          0                 1           2             5    7     1      -0.9182186513E-02       5    7    1        -0.4875135443E+00      0.1103346721E+01
          0                 2           2             5    7     1       0.8931741136E-03       5    7    1         0.4875120108E-01      0.1100681919E+00
          0                 3           1             5    7     1      -0.6082195195E-04       5    7    1        -0.3412587016E-02      0.7680030129E-02

    ------------------------------------------------
       NWT REQUIRED            3 OUTER ITERATIONS 
       AND A TOTAL OF          5 INNER ITERATIONS.
    ------------------------------------------------

 NO OUTPUT CONTROL FOR STRESS PERIOD    5   TIME STEP   20
 
 SOLVING FOR HEAD 
                                                   Max.-Head-Change                         Max.-Flux-Residual
  Residual-Control   Outer-Iter.   Inner-Iter.     Column Row Layer    Maximum-Head-Change  Column Row Layer    Maximum-Flux-Residual          L2-NORM 
          0                 1           2             5    7     1      -0.8998982540E-02       5    7    1        -0.4775355420E+00      0.1083261556E+01
          0                 2           2             5    7     1       0.8753534859E-03       5    7    1         0.4775340939E-01      0.1080960938E+00
          0                 3           1             5    7     1      -0.5960843507E-04       5    7    1        -0.3342741459E-02      0.7545580003E-02

    ------------------------------------------------
       NWT REQUIRED            3 OUTER ITERATIONS 
       AND A TOTAL OF          5 INNER ITERATIONS.
    ------------------------------------------------

 NO OUTPUT CONTROL FOR STRESS PERIOD    5   TIME STEP   21
 
 SOLVING FOR HEAD 
                                                   Max.-Head-Change                         Max.-Flux-Residual
  Residual-Control   Outer-Iter.   Inner-Iter.     Column Row Layer    Maximum-Head-Change  Column Row Layer    Maximum-Flux-Residual          L2-NORM 
          0                 1           2             5    7     1      -0.8822891303E-02       5    7    1        -0.4679651178E+00      0.1064543298E+01
          0                 2           2             5    7     1       0.8582247221E-03       5    7    1         0.4679637469E-01      0.1061761563E+00
          0                 3           1             5    7     1      -0.5844203180E-04       5    7    1        -0.3275748934E-02      0.7414309053E-02

    ------------------------------------------------
       NWT REQUIRED            3 OUTER ITERATIONS 
       AND A TOTAL OF          5 INNER ITERATIONS.
    ------------------------------------------------

 NO OUTPUT CONTROL FOR STRESS PERIOD    5   TIME STEP   22
 
 SOLVING FOR HEAD 
                                                   Max.-Head-Change                         Max.-Flux-Residual
  Residual-Control   Outer-Iter.   Inner-Iter.     Column Row Layer    Maximum-Head-Change  Column Row Layer    Maximum-Flux-Residual          L2-NORM 
          0                 1           2             5    7     1      -0.8653707655E-02       5    7    1        -0.4587854748E+00      0.1047138580E+01
          0                 2           2             5    7     1       0.8417678687E-03       5    7    1         0.4587841741E-01      0.1045395267E+00
          0                 3           1             5    7     1      -0.5732138291E-04       5    7    1        -0.3211491842E-02      0.7302250748E-02

    ------------------------------------------------
       NWT REQUIRED            3 OUTER ITERATIONS 
       AND A TOTAL OF          5 INNER ITERATIONS.
    ------------------------------------------------

 NO OUTPUT CONTROL FOR STRESS PERIOD    5   TIME STEP   23
 
 SOLVING FOR HEAD 
                                                   Max.-Head-Change                         Max.-Flux-Residual
  Residual-Control   Outer-Iter.   Inner-Iter.     Column Row Layer    Maximum-Head-Change  Column Row Layer    Maximum-Flux-Residual          L2-NORM 
          0                 1           2             5    7     1      -0.8490698389E-02       5    7    1        -0.4499516937E+00      0.1030959616E+01
          0                 2           2             5    7     1       0.8259116052E-03       5    7    1         0.4499504572E-01      0.1029443916E+00
          0                 3           1             5    7     1      -0.5624163140E-04       5    7    1        -0.3149655735E-02      0.7192477256E-02

    ------------------------------------------------
       NWT REQUIRED            3 OUTER ITERATIONS 
       AND A TOTAL OF          5 INNER ITERATIONS.
    ------------------------------------------------

 NO OUTPUT CONTROL FOR STRESS PERIOD    5   TIME STEP   24
 
 SOLVING FOR HEAD 
                                                   Max.-Head-Change                         Max.-Flux-Residual
  Residual-Control   Outer-Iter.   Inner-Iter.     Column Row Layer    Maximum-Head-Change  Column Row Layer    Maximum-Flux-Residual          L2-NORM 
          0                 1           2             5    7     1      -0.8333795137E-02       5    7    1        -0.4414583747E+00      0.1015777507E+01
          0                 2           2             5    7     1       0.8106492840E-03       5    7    1         0.4414571978E-01      0.1014452700E+00
          0                 3           1             5    7     1      -0.5520232522E-04       5    7    1        -0.3090202836E-02      0.7088714795E-02

    ------------------------------------------------
       NWT REQUIRED            3 OUTER ITERATIONS 
       AND A TOTAL OF          5 INNER ITERATIONS.
    ------------------------------------------------

 NO OUTPUT CONTROL FOR STRESS PERIOD    5   TIME STEP   25
 
 SOLVING FOR HEAD 
                                                   Max.-Head-Change                         Max.-Flux-Residual
  Residual-Control   Outer-Iter.   Inner-Iter.     Column Row Layer    Maximum-Head-Change  Column Row Layer    Maximum-Flux-Residual          L2-NORM 
          0                 1           2             5    7     1      -0.8182663062E-02       5    7    1        -0.4332849806E+00      0.1001510948E+01
          0                 2           2             5    7     1       0.7959483349E-03       5    7    1         0.4332838592E-01      0.1000357226E+00
          0                 3           1             5    7     1      -0.5420124604E-04       5    7    1        -0.3032989385E-02      0.6991692109E-02

    ------------------------------------------------
       NWT REQUIRED            3 OUTER ITERATIONS 
       AND A TOTAL OF          5 INNER ITERATIONS.
    ------------------------------------------------

 NO OUTPUT CONTROL FOR STRESS PERIOD    5   TIME STEP   26
 
 SOLVING FOR HEAD 
                                                   Max.-Head-Change                         Max.-Flux-Residual
  Residual-Control   Outer-Iter.   Inner-Iter.     Column Row Layer    Maximum-Head-Change  Column Row Layer    Maximum-Flux-Residual          L2-NORM 
          0                 1           2             5    7     1      -0.8037000255E-02       5    7    1        -0.4254134357E+00      0.9880969370E+00
          0                 2           2             5    7     1       0.7817793911E-03       5    7    1         0.4254123662E-01      0.9870887055E-01
          0                 3           1             5    7     1      -0.5323639419E-04       5    7    1        -0.2977888853E-02      0.6900035626E-02

    ------------------------------------------------
       NWT REQUIRED            3 OUTER ITERATIONS 
       AND A TOTAL OF          5 INNER ITERATIONS.
    ------------------------------------------------

 NO OUTPUT CONTROL FOR STRESS PERIOD    5   TIME STEP   27
 
 SOLVING FOR HEAD 
                                                   Max.-Head-Change                         Max.-Flux-Residual
  Residual-Control   Outer-Iter.   Inner-Iter.     Column Row Layer    Maximum-Head-Change  Column Row Layer    Maximum-Flux-Residual          L2-NORM 
          0                 1           2             5    7     1      -0.7896520446E-02       5    7    1        -0.4178279678E+00      0.9754256800E+00
          0                 2           2             5    7     1       0.7681146068E-03       5    7    1         0.4178269467E-01      0.9745464865E-01
          0                 3           1             5    7     1      -0.5230587394E-04       5    7    1        -0.2924790870E-02      0.6813657478E-02

    ------------------------------------------------
       NWT REQUIRED            3 OUTER ITERATIONS 
       AND A TOTAL OF          5 INNER ITERATIONS.
    ------------------------------------------------

 NO OUTPUT CONTROL FOR STRESS PERIOD    5   TIME STEP   28
 
 SOLVING FOR HEAD 
                                                   Max.-Head-Change                         Max.-Flux-Residual
  Residual-Control   Outer-Iter.   Inner-Iter.     Column Row Layer    Maximum-Head-Change  Column Row Layer    Maximum-Flux-Residual          L2-NORM 
          0                 1           2             5    7     1      -0.7754520581E-02       5    7    1        -0.4105131381E+00      0.1054041035E+01
          0                 2           2             5    7     1       0.7543019991E-03       5    7    1         0.4105121903E-01      0.1049712985E+00
          0                 3           1             5    7     1      -0.5136527022E-04       5    7    1        -0.2873587474E-02      0.7308243201E-02

    ------------------------------------------------
       NWT REQUIRED            3 OUTER ITERATIONS 
       AND A TOTAL OF          5 INNER ITERATIONS.
    ------------------------------------------------

 NO OUTPUT CONTROL FOR STRESS PERIOD    5   TIME STEP   29
 
 SOLVING FOR HEAD 
                                                   Max.-Head-Change                         Max.-Flux-Residual
  Residual-Control   Outer-Iter.   Inner-Iter.     Column Row Layer    Maximum-Head-Change  Column Row Layer    Maximum-Flux-Residual          L2-NORM 
          0                 1           2             4   13     1       0.2587032479E-01       4   13    1         0.1498441378E+01      0.2806739980E+01
          0                 2           2             4   13     1      -0.2857947553E-02       4   13    1        -0.1734776974E+00      0.2875782469E+00
          0                 3           2             4   13     1       0.1916705526E-03       4   13    1         0.1196240193E-01      0.1939208641E-01
          0                 4           1             4   13     1      -0.7431162059E-05       4   13    1        -0.4768907302E-03      0.7466566652E-03

    ------------------------------------------------
       NWT REQUIRED            4 OUTER ITERATIONS 
       AND A TOTAL OF          7 INNER ITERATIONS.
    ------------------------------------------------

 NO OUTPUT CONTROL FOR STRESS PERIOD    5   TIME STEP   30



 STREAM LISTING     PERIOD      5   STEP       30

 LAYER ROW COL. STREAM  RCH.  FLOW INTO     FLOW TO   FLOW OUT OF   OVRLND.     DIRECT     STREAM       STREAM     STREAM     STREAM   STREAMBED  STREAMBED
                SEG.NO.  NO.  STRM. RCH.    AQUIFER    STRM. RCH.    RUNOFF     PRECIP       ET          HEAD       DEPTH      WIDTH   CONDCTNC.   GRADIENT

   1    1    1     1     1    9.9000E+01  4.7281E-01   9.8528E+01  0.000E+00  0.000E+00  0.000E+00  1.09484E+03  1.796E+00  2.191E+01  9.859E-02  1.599E+00
   1    2    2     1     2    9.8528E+01  7.3365E-01   9.7794E+01  0.000E+00  0.000E+00  0.000E+00  1.08985E+03  1.793E+00  2.187E+01  1.531E-01  1.598E+00
   1    3    3     1     3    9.7794E+01  6.2707E-01   9.7167E+01  0.000E+00  0.000E+00  0.000E+00  1.08421E+03  1.791E+00  2.181E+01  1.309E-01  1.597E+00
   1    3    4     1     4    9.7167E+01  5.7859E-01   9.6588E+01  0.000E+00  0.000E+00  0.000E+00  1.07920E+03  1.789E+00  2.177E+01  1.208E-01  1.596E+00
   1    4    5     2     1    9.4588E+01  4.4299E-01   9.4145E+01  0.000E+00  0.000E+00  0.000E+00  1.07461E+03  2.679E+00  1.200E+01  7.800E-02  1.893E+00
   1    5    6     2     2    9.4145E+01  3.4036E-01   9.3805E+01  0.000E+00  0.000E+00  0.000E+00  1.06918E+03  2.673E+00  1.200E+01  6.000E-02  1.891E+00
   1    6    6     2     3    9.3805E+01  3.4001E-01   9.3465E+01  0.000E+00  0.000E+00  0.000E+00  1.06446E+03  2.667E+00  1.200E+01  6.000E-02  1.889E+00
   1    7    6     2     4    9.3465E+01  3.3967E-01   9.3125E+01  0.000E+00  0.000E+00  0.000E+00  1.05974E+03  2.661E+00  1.200E+01  6.000E-02  1.887E+00
   1    8    6     2     5    9.3125E+01  3.3932E-01   9.2786E+01  0.000E+00  0.000E+00  0.000E+00  1.05501E+03  2.655E+00  1.200E+01  6.000E-02  1.885E+00
   1    3    5     3     1    2.0000E+00  2.8252E-01   1.7175E+00  0.000E+00  0.000E+00  0.000E+00  1.07555E+03  1.909E+00  9.636E+00  7.227E-02  1.955E+00
   1    3    6     3     2    1.7175E+00  2.4905E-01   1.4684E+00  0.000E+00  0.000E+00  0.000E+00  1.07264E+03  1.727E+00  8.909E+00  6.682E-02  1.864E+00
   1    3    7     3     3    1.4684E+00  1.9718E-01   1.2712E+00  0.000E+00  0.000E+00  0.000E+00  1.06987E+03  1.555E+00  8.218E+00  5.547E-02  1.777E+00
   1    4    8     3     4    1.2712E+00  2.2567E-01   1.0456E+00  0.000E+00  0.000E+00  0.000E+00  1.06682E+03  1.364E+00  7.455E+00  6.709E-02  1.682E+00
   1    5    8     3     5    1.0456E+00  1.5790E-01   8.8768E-01  0.000E+00  0.000E+00  0.000E+00  1.06362E+03  1.164E+00  6.655E+00  4.991E-02  1.582E+00
   1    6    8     3     6    8.8768E-01  5.5980E-02   8.3170E-01  0.000E+00  0.000E+00  0.000E+00  1.06158E+03  1.036E+00  6.145E+00  1.844E-02  1.518E+00
   1    5   10     4     1    1.0000E+01  9.0919E-02   9.9091E+00  0.000E+00  0.000E+00  0.000E+00  1.07836E+03  6.368E-01  1.000E+01  2.500E-02  1.212E+00
   1    5    9     4     2    9.9091E+00  1.8158E-01   9.7275E+00  0.000E+00  0.000E+00  0.000E+00  1.07154E+03  6.315E-01  1.000E+01  5.000E-02  1.211E+00
   1    6    8     4     3    9.7275E+00  1.2689E-01   9.6006E+00  0.000E+00  0.000E+00  0.000E+00  1.06381E+03  6.256E-01  1.000E+01  3.500E-02  1.209E+00
   1    6    8     5     1    1.0432E+01  2.2686E-01   1.0205E+01  0.000E+00  0.000E+00  0.000E+00  1.05868E+03  6.790E-01  1.542E+01  6.166E-02  1.226E+00
   1    7    7     5     2    1.0205E+01  2.7894E-01   9.9265E+00  0.000E+00  0.000E+00  0.000E+00  1.05417E+03  6.732E-01  1.519E+01  7.594E-02  1.224E+00
   1    8    7     5     3    9.9265E+00  1.9221E-01   9.7343E+00  0.000E+00  0.000E+00  0.000E+00  1.04992E+03  6.676E-01  1.497E+01  5.241E-02  1.223E+00
   1    8    6     5     4    9.7343E+00  1.3577E-01   9.5985E+00  0.000E+00  0.000E+00  0.000E+00  1.04691E+03  6.637E-01  1.482E+01  3.706E-02  1.221E+00
   1    9    6     6     1    1.0238E+02  3.5054E-01   1.0203E+02  0.000E+00  0.000E+00  0.000E+00  1.04557E+03  2.842E+00  1.200E+01  6.000E-02  1.947E+00
   1   10    7     6     2    1.0203E+02  3.5018E-01   1.0168E+02  0.000E+00  0.000E+00  0.000E+00  1.04102E+03  2.836E+00  1.200E+01  6.000E-02  1.945E+00
   1   11    7     6     3    1.0168E+02  3.4983E-01   1.0133E+02  0.000E+00  0.000E+00  0.000E+00  1.03647E+03  2.831E+00  1.200E+01  6.000E-02  1.944E+00
   1   12    7     6     4    1.0133E+02  3.4948E-01   1.0098E+02  0.000E+00  0.000E+00  0.000E+00  1.03192E+03  2.825E+00  1.200E+01  6.000E-02  1.942E+00
   1   13    7     6     5    1.0098E+02  3.7134E-02   1.0095E+02  0.000E+00  0.000E+00  0.000E+00  1.02873E+03  2.821E+00  1.200E+01  2.400E-02  5.157E-01
   1   14    9     7     1    1.5000E+02  1.3318E+00   1.4867E+02  0.000E+00  0.000E+00  0.000E+00  1.03987E+03  2.288E+00  5.529E+01  5.593E-01  7.937E-01
   1   13    8     7     2    1.4867E+02  1.8109E+00   1.4686E+02  0.000E+00  0.000E+00  0.000E+00  1.03478E+03  2.279E+00  5.526E+01  6.148E-01  9.818E-01
   1   13    7     7     3    1.4686E+02  1.4000E+00   1.4546E+02  0.000E+00  0.000E+00  0.000E+00  1.02969E+03  2.271E+00  5.522E+01  5.585E-01  8.356E-01
   1   13    6     8     1    2.4640E+02  1.1761E+00   2.4523E+02  0.000E+00  0.000E+00  0.000E+00  1.02527E+03  3.390E+00  4.916E+01  5.009E-01  7.826E-01
   1   13    5     8     2    2.4523E+02  3.1437E-01   2.4491E+02  0.000E+00  0.000E+00  0.000E+00  1.01901E+03  3.386E+00  4.910E+01  5.003E-01  2.094E-01
   1   13    4     8     3    2.4491E+02 -1.2803E+00   2.4619E+02  0.000E+00  0.000E+00  0.000E+00  1.01276E+03  3.389E+00  4.914E+01  5.007E+00 -8.523E-02
   1   13    3     8     4    2.4619E+02 -2.5267E+00   2.4872E+02  0.000E+00  0.000E+00  0.000E+00  1.00652E+03  3.399E+00  4.928E+01  5.022E+00 -1.677E-01
   1   13    2     8     5    2.4872E+02 -1.3015E+00   2.5002E+02  0.000E+00  0.000E+00  0.000E+00  1.00028E+03  3.408E+00  4.942E+01  5.036E+00 -8.614E-02
   1   13    1     8     6    2.5002E+02 -1.2937E+00   2.5132E+02  0.000E+00  0.000E+00  0.000E+00  9.95290E+02  3.415E+00  4.952E+01  3.028E+00 -1.424E-01





UNSATURATED ZONE PACKAGE VOLUMETRIC BUDGET FOR  TIME STEP    30 STRESS PERIOD    5
  ------------------------------------------------------------------------------



     CUMULATIVE VOLUMES      L**3       RATES FOR THIS TIME STEP      L**3/T
     ------------------                 ------------------------

           IN:                                      IN:
           ---                                      ---
        INFILTRATION =    56389093.8279          INFILTRATION =           7.8403

          OUT:                                     OUT:
          ----                                     ----
              UZF ET =    35822737.4407                UZF ET =           7.8575
        UZF RECHARGE =       73224.0000          UZF RECHARGE =       0.0000E+00

            IN - OUT =    20493132.3872              IN - OUT =      -1.7170E-02

          STORAGE:                                 STORAGE:
          --------                                 --------
      STORAGE CHANGE =    20493838.2795        STORAGE CHANGE =      -1.7170E-02

 PERCENT DISCREPANCY IS DIFFERENCE BETWEEN IN-OUT MINUS CHANGE IN STORAGE
 DIVIDED BY THE AVERAGE OF IN AND OUT TIMES 100

 PERCENT DISCREPANCY =          -0.00     PERCENT DISCREPANCY =           0.00






1
  VOLUMETRIC BUDGET FOR ENTIRE MODEL AT END OF TIME STEP   30, STRESS PERIOD   5
  ------------------------------------------------------------------------------

     CUMULATIVE VOLUMES      L**3       RATES FOR THIS TIME STEP      L**3/T
     ------------------                 ------------------------

           IN:                                      IN:
           ---                                      ---
               AG WELLS  =     9948972.0000                 AG WELLS  =           3.4328
      DIVERSION SEGMENTS =           0.0000        DIVERSION SEGMENTS =           0.0000
           GW IRRIGATION =           0.0000             GW IRRIGATION =           0.0000
           SW IRRIGATION =           0.0000             SW IRRIGATION =           0.0000
        SYSTEM LOSSES GW =           0.0000          SYSTEM LOSSES GW =           0.0000
        SYSTEM LOSSES SW =           0.0000          SYSTEM LOSSES SW =           0.0000

                TOTAL IN =     9948972.0000                  TOTAL IN =           3.4328

          OUT:                                     OUT:
          ----                                     ----
               AG WELLS  =           0.0000                 AG WELLS  =           0.0000
      DIVERSION SEGMENTS =           0.0000        DIVERSION SEGMENTS =           0.0000
           GW IRRIGATION =     9948972.0000             GW IRRIGATION =           3.4328
           SW IRRIGATION =           0.0000             SW IRRIGATION =           0.0000
        SYSTEM LOSSES GW =           0.0000          SYSTEM LOSSES GW =           0.0000
        SYSTEM LOSSES SW =           0.0000          SYSTEM LOSSES SW =           0.0000

               TOTAL OUT =     9948972.0000                 TOTAL OUT =           3.4328

                IN - OUT =           0.0000                  IN - OUT =           0.0000

     PERCENT DISCREPANCY =           0.00         PERCENT DISCREPANCY =           0.00



1
  VOLUMETRIC BUDGET FOR ENTIRE MODEL AT END OF TIME STEP   30, STRESS PERIOD   5
  ------------------------------------------------------------------------------

     CUMULATIVE VOLUMES      L**3       RATES FOR THIS TIME STEP      L**3/T
     ------------------                 ------------------------

           IN:                                      IN:
           ---                                      ---
             STORAGE     =    18752258.0000               STORAGE     =           3.1717
       CONSTANT HEAD     =           0.0000         CONSTANT HEAD     =           0.0000
     HEAD DEP BOUNDS     =     3027432.2500       HEAD DEP BOUNDS     =           0.2855
      STREAM LEAKAGE     =   129797448.0000        STREAM LEAKAGE     =          14.0862
        UZF RECHARGE     =       73223.9531          UZF RECHARGE     =           0.0000
               GW ET     =           0.0000                 GW ET     =           0.0000
     SURFACE LEAKAGE     =           0.0000       SURFACE LEAKAGE     =           0.0000
           AG WELLS      =           0.0000             AG WELLS      =           0.0000

                TOTAL IN =   151650352.0000                  TOTAL IN =          17.5434

          OUT:                                     OUT:
          ----                                     ----
             STORAGE     =    26536642.0000               STORAGE     =           7.3624
       CONSTANT HEAD     =           0.0000         CONSTANT HEAD     =           0.0000
     HEAD DEP BOUNDS     =     3102150.0000       HEAD DEP BOUNDS     =           0.2933
      STREAM LEAKAGE     =   111913296.0000        STREAM LEAKAGE     =           6.4023
        UZF RECHARGE     =           0.0000          UZF RECHARGE     =           0.0000
               GW ET     =      152765.2344                 GW ET     =       5.2636E-02
     SURFACE LEAKAGE     =           0.0000       SURFACE LEAKAGE     =           0.0000
           AG WELLS      =     9948972.0000             AG WELLS      =           3.4328

               TOTAL OUT =   151653840.0000                 TOTAL OUT =          17.5434

                IN - OUT =       -3488.0000                  IN - OUT =       1.7166E-05

     PERCENT DISCREPANCY =          -0.00         PERCENT DISCREPANCY =           0.00






         TIME SUMMARY AT END OF TIME STEP   30 IN STRESS PERIOD    5
                    SECONDS     MINUTES      HOURS       DAYS        YEARS
                    -----------------------------------------------------------
   TIME STEP LENGTH  87667.      1461.1      24.352      1.0147     2.77799E-03
 STRESS PERIOD TIME 2.63000E+06  43833.      730.56      30.440     8.33397E-02
         TOTAL TIME 1.06064E+07 1.76773E+05  2946.2      122.76     0.33610    
1
1
                            STRESS PERIOD NO.    6, LENGTH =   2630000.    
                            -----------------------------------------------

                              NUMBER OF TIME STEPS =    30

                               MULTIPLIER FOR DELT =     1.000

                            INITIAL TIME STEP SIZE =   87666.66    

 REUSING NON-PARAMETER GHB CELLS FROM LAST STRESS PERIOD

      2 GHB CELLS

 REUSING STREAM SEGMENT DATA FROM LAST STRESS PERIOD



            AREAL INFILTRATION RATE
 READING ON UNIT   19 WITH FORMAT: (10F4.0)            

            1           2           3           4           5           6           7           8           9          10
 ........................................................................................................................
   1   1.2000E-09   0.000       0.000       0.000       0.000       0.000       0.000       0.000       0.000       0.000    
   2   2.1000E-09  2.0000E-09  8.0000E-10  8.5000E-09   0.000       0.000       0.000       0.000       0.000       0.000    
   3   5.0000E-10  1.1000E-09  8.8000E-09  5.5000E-09   0.000       0.000       0.000       0.000       0.000       0.000    
   4   8.5000E-09  1.1000E-09  1.1000E-09  1.1000E-09  2.0000E-09   0.000       0.000       0.000       0.000       0.000    
   5   8.5000E-09  1.1000E-09  1.1000E-09  1.1000E-09  1.1000E-09   0.000       0.000       0.000       0.000       0.000    
   6   8.5000E-09  5.2000E-09  2.1000E-09  1.1000E-09  1.5000E-09   0.000       0.000       0.000       0.000       0.000    
   7   8.5000E-09  5.2000E-09  2.1000E-09  1.2000E-09  2.0000E-09   0.000       0.000       0.000       0.000       0.000    
   8   5.0000E-10  5.2000E-09  2.1000E-09  1.2000E-09  5.0000E-09   0.000       0.000       0.000       0.000       0.000    
   9   5.0000E-10  5.2000E-09  2.1000E-09  1.2000E-09  5.0000E-09   0.000       0.000       0.000       0.000       0.000    
  10   5.0000E-10  5.2000E-09  2.1000E-09  1.2000E-09  5.8000E-09   0.000       0.000       0.000       0.000       0.000    
  11   1.0000E-10  1.1000E-09  1.1000E-09  1.2000E-09  5.0000E-09   0.000       0.000       0.000       0.000       0.000    
  12   1.1000E-09  1.1000E-09  1.1000E-09  1.1000E-09  2.0000E-09   0.000       0.000       0.000       0.000       0.000    
  13   1.1000E-09  2.2000E-09  2.2000E-09  2.1000E-09  1.0000E-09   0.000       0.000       0.000       0.000       0.000    
  14   2.0000E-10  5.5000E-09  5.5000E-09  5.2000E-09  1.0000E-09   0.000       0.000       0.000       0.000       0.000    
  15    0.000      8.8000E-09  8.8000E-09   0.000       0.000       0.000       0.000       0.000       0.000       0.000    

                  ET RATE =  5.000000E-08

 USING ET EXTINCTION DEPTH FROM PREVIOUS STRESS PERIOD. CURRENT PERIOD IS:       6

 USING EXTINCTION WATER CONTENT FROM PREVIOUS STRESS PERIOD. CURRENT PERIOD IS:       6

 USING AIR ENTRY PRESSURE FROM PREVIOUS STRESS PERIOD. CURRENT PERIOD IS:       6

 USING ROOT PRESSURE HEAD FROM PREVIOUS STRESS PERIOD. CURRENT PERIOD IS:       6

 USING ROOT ACTIVITY FROM PREVIOUS STRESS PERIOD. CURRENT PERIOD IS:       6

 PROCESSING AG STRESS PERIOD DATA

 READING AG STRESS PERIOD DATA

 READING IRRIGATION WELL

 END PROCESSING AG STRESS PERIOD DATA OPTIONS
 
 SOLVING FOR HEAD 
                                                   Max.-Head-Change                         Max.-Flux-Residual
  Residual-Control   Outer-Iter.   Inner-Iter.     Column Row Layer    Maximum-Head-Change  Column Row Layer    Maximum-Flux-Residual          L2-NORM 
          0                 1           2             2   13     1       0.2249236363E-01       4   13    1         0.1300822454E+01      0.3376138722E+01
          0                 2           2             4   13     1      -0.2084130153E-02       4   13    1        -0.1286950790E+00      0.3327379806E+00
          0                 3           2             4   13     1       0.1397889308E-03       4   13    1         0.8875126074E-02      0.2284423667E-01
          0                 4           1             4   13     1      -0.5421349491E-05       4   13    1        -0.3539107147E-03      0.9064789566E-03

    ------------------------------------------------
       NWT REQUIRED            4 OUTER ITERATIONS 
       AND A TOTAL OF          7 INNER ITERATIONS.
    ------------------------------------------------

 NO OUTPUT CONTROL FOR STRESS PERIOD    6   TIME STEP    1
 
 SOLVING FOR HEAD 
                                                   Max.-Head-Change                         Max.-Flux-Residual
  Residual-Control   Outer-Iter.   Inner-Iter.     Column Row Layer    Maximum-Head-Change  Column Row Layer    Maximum-Flux-Residual          L2-NORM 
          0                 1           2             2   13     1       0.2062645964E-01       2   13    1         0.1172439842E+01      0.3168704666E+01
          0                 2           2             2   13     1      -0.1913779887E-02       2   13    1        -0.1118278668E+00      0.3127131076E+00
          0                 3           2             5    7     1      -0.1240706693E-03       4   13    1         0.7683384845E-02      0.2150951247E-01
          0                 4           1             5    7     1       0.4936893239E-05       4   13    1        -0.3091552553E-03      0.8570909061E-03

    ------------------------------------------------
       NWT REQUIRED            4 OUTER ITERATIONS 
       AND A TOTAL OF          7 INNER ITERATIONS.
    ------------------------------------------------

 NO OUTPUT CONTROL FOR STRESS PERIOD    6   TIME STEP    2
 
 SOLVING FOR HEAD 
                                                   Max.-Head-Change                         Max.-Flux-Residual
  Residual-Control   Outer-Iter.   Inner-Iter.     Column Row Layer    Maximum-Head-Change  Column Row Layer    Maximum-Flux-Residual          L2-NORM 
          0                 1           2             2   13     1       0.1890953255E-01       2   13    1         0.1074991093E+01      0.3014269240E+01
          0                 2           2             5    7     1       0.1793805187E-02       2   13    1        -0.1027274840E+00      0.2979186750E+00
          0                 3           2             5    7     1      -0.1221515250E-03       5    7    1        -0.6822450082E-02      0.2053226622E-01
          0                 4           1             5    7     1       0.4860529102E-05       5    7    1         0.2790385788E-03      0.8199402671E-03

    ------------------------------------------------
       NWT REQUIRED            4 OUTER ITERATIONS 
       AND A TOTAL OF          7 INNER ITERATIONS.
    ------------------------------------------------

 NO OUTPUT CONTROL FOR STRESS PERIOD    6   TIME STEP    3
 
 SOLVING FOR HEAD 
                                                   Max.-Head-Change                         Max.-Flux-Residual
  Residual-Control   Outer-Iter.   Inner-Iter.     Column Row Layer    Maximum-Head-Change  Column Row Layer    Maximum-Flux-Residual          L2-NORM 
          0                 1           2             5    7     1      -0.1815702699E-01       2   13    1         0.9853434135E+00      0.2882060129E+01
          0                 2           2             5    7     1       0.1766179376E-02       5    7    1         0.9594410147E-01      0.2852541600E+00
          0                 3           2             5    7     1      -0.1202703093E-03       5    7    1        -0.6716092652E-02      0.1969715278E-01
          0                 4           1             5    7     1       0.4785674288E-05       5    7    1         0.2746885650E-03      0.7882072794E-03

    ------------------------------------------------
       NWT REQUIRED            4 OUTER ITERATIONS 
       AND A TOTAL OF          7 INNER ITERATIONS.
    ------------------------------------------------

 NO OUTPUT CONTROL FOR STRESS PERIOD    6   TIME STEP    4
 
 SOLVING FOR HEAD 
                                                   Max.-Head-Change                         Max.-Flux-Residual
  Residual-Control   Outer-Iter.   Inner-Iter.     Column Row Layer    Maximum-Head-Change  Column Row Layer    Maximum-Flux-Residual          L2-NORM 
          0                 1           2             5    7     1      -0.1787900565E-01       5    7    1        -0.9445806318E+00      0.2768449050E+01
          0                 2           2             5    7     1       0.1739135528E-02       5    7    1         0.9445778544E-01      0.2743632879E+00
          0                 3           2             5    7     1      -0.1184287231E-03       5    7    1        -0.6612050463E-02      0.1897777178E-01
          0                 4           1             5    7     1       0.4712395800E-05       5    7    1         0.2704332276E-03      0.7624967512E-03

    ------------------------------------------------
       NWT REQUIRED            4 OUTER ITERATIONS 
       AND A TOTAL OF          7 INNER ITERATIONS.
    ------------------------------------------------

 NO OUTPUT CONTROL FOR STRESS PERIOD    6   TIME STEP    5
 
 SOLVING FOR HEAD 
                                                   Max.-Head-Change                         Max.-Flux-Residual
  Residual-Control   Outer-Iter.   Inner-Iter.     Column Row Layer    Maximum-Head-Change  Column Row Layer    Maximum-Flux-Residual          L2-NORM 
          0                 1           2             4    7     1      -0.1762583414E-01       5    7    1        -0.9300414803E+00      0.2670347132E+01
          0                 2           2             4    7     1       0.1714509795E-02       5    7    1         0.9300387337E-01      0.2649510488E+00
          0                 3           2             4    7     1      -0.1167517924E-03       5    7    1        -0.6510276541E-02      0.1835528901E-01
          0                 4           1             4    7     1       0.4645663008E-05       5    7    1         0.2662706574E-03      0.7388469747E-03

    ------------------------------------------------
       NWT REQUIRED            4 OUTER ITERATIONS 
       AND A TOTAL OF          7 INNER ITERATIONS.
    ------------------------------------------------

 NO OUTPUT CONTROL FOR STRESS PERIOD    6   TIME STEP    6
 
 SOLVING FOR HEAD 
                                                   Max.-Head-Change                         Max.-Flux-Residual
  Residual-Control   Outer-Iter.   Inner-Iter.     Column Row Layer    Maximum-Head-Change  Column Row Layer    Maximum-Flux-Residual          L2-NORM 
          0                 1           2             4    7     1      -0.1753345554E-01       4    7    1        -0.9165215539E+00      0.2585183035E+01
          0                 2           2             4    7     1       0.1705523681E-02       4    7    1         0.9165193460E-01      0.2567707019E+00
          0                 3           2             4    7     1      -0.1161398731E-03       4    7    1        -0.6415640282E-02      0.1781398221E-01
          0                 4           1             4    7     1       0.4621313981E-05       4    7    1         0.2624000253E-03      0.7186168131E-03

    ------------------------------------------------
       NWT REQUIRED            4 OUTER ITERATIONS 
       AND A TOTAL OF          7 INNER ITERATIONS.
    ------------------------------------------------

 NO OUTPUT CONTROL FOR STRESS PERIOD    6   TIME STEP    7
 
 SOLVING FOR HEAD 
                                                   Max.-Head-Change                         Max.-Flux-Residual
  Residual-Control   Outer-Iter.   Inner-Iter.     Column Row Layer    Maximum-Head-Change  Column Row Layer    Maximum-Flux-Residual          L2-NORM 
          0                 1           2             4    7     1      -0.1743492551E-01       4    7    1        -0.9116735526E+00      0.2510801543E+01
          0                 2           2             4    7     1       0.1695939226E-02       4    7    1         0.9116712252E-01      0.2496146599E+00
          0                 3           2             4    7     1      -0.1154872092E-03       4    7    1        -0.6381703525E-02      0.1733902519E-01
          0                 4           1             4    7     1       0.4595343957E-05       4    7    1         0.2610120275E-03      0.7007836692E-03

    ------------------------------------------------
       NWT REQUIRED            4 OUTER ITERATIONS 
       AND A TOTAL OF          7 INNER ITERATIONS.
    ------------------------------------------------

 NO OUTPUT CONTROL FOR STRESS PERIOD    6   TIME STEP    8
 
 SOLVING FOR HEAD 
                                                   Max.-Head-Change                         Max.-Flux-Residual
  Residual-Control   Outer-Iter.   Inner-Iter.     Column Row Layer    Maximum-Head-Change  Column Row Layer    Maximum-Flux-Residual          L2-NORM 
          0                 1           2             4    7     1      -0.1733062735E-01       4    7    1        -0.9064986990E+00      0.2445370657E+01
          0                 2           2             4    7     1       0.1685793713E-02       4    7    1         0.9064962679E-01      0.2433069700E+00
          0                 3           2             4    7     1      -0.1147963388E-03       4    7    1        -0.6345478903E-02      0.1691900432E-01
          0                 4           1             4    7     1       0.4567854019E-05       4    7    1         0.2595304579E-03      0.6850228780E-03

    ------------------------------------------------
       NWT REQUIRED            4 OUTER ITERATIONS 
       AND A TOTAL OF          7 INNER ITERATIONS.
    ------------------------------------------------

 NO OUTPUT CONTROL FOR STRESS PERIOD    6   TIME STEP    9
 
 SOLVING FOR HEAD 
                                                   Max.-Head-Change                         Max.-Flux-Residual
  Residual-Control   Outer-Iter.   Inner-Iter.     Column Row Layer    Maximum-Head-Change  Column Row Layer    Maximum-Flux-Residual          L2-NORM 
          0                 1           2             4    7     1      -0.1722117328E-01       4    7    1        -0.9010303750E+00      0.2387407150E+01
          0                 2           2             4    7     1       0.1675146691E-02       4    7    1         0.9010278549E-01      0.2377074775E+00
          0                 3           2             4    7     1      -0.1140713173E-03       4    7    1        -0.6307200093E-02      0.1654486631E-01
          0                 4           1             4    7     1       0.4539004194E-05       4    7    1         0.2579648269E-03      0.6704286544E-03

    ------------------------------------------------
       NWT REQUIRED            4 OUTER ITERATIONS 
       AND A TOTAL OF          7 INNER ITERATIONS.
    ------------------------------------------------

 NO OUTPUT CONTROL FOR STRESS PERIOD    6   TIME STEP   10
 
 SOLVING FOR HEAD 
                                                   Max.-Head-Change                         Max.-Flux-Residual
  Residual-Control   Outer-Iter.   Inner-Iter.     Column Row Layer    Maximum-Head-Change  Column Row Layer    Maximum-Flux-Residual          L2-NORM 
          0                 1           2             4    7     1      -0.1710713559E-01       4    7    1        -0.8952996081E+00      0.2335702488E+01
          0                 2           2             4    7     1       0.1664053828E-02       4    7    1         0.8952970123E-01      0.2327014670E+00
          0                 3           2             4    7     1      -0.1133159355E-03       4    7    1        -0.6267084254E-02      0.1620928578E-01
          0                 4           1             4    7     1       0.4508946680E-05       4    7    1         0.2563240885E-03      0.6578511900E-03

    ------------------------------------------------
       NWT REQUIRED            4 OUTER ITERATIONS 
       AND A TOTAL OF          7 INNER ITERATIONS.
    ------------------------------------------------

 NO OUTPUT CONTROL FOR STRESS PERIOD    6   TIME STEP   11
 
 SOLVING FOR HEAD 
                                                   Max.-Head-Change                         Max.-Flux-Residual
  Residual-Control   Outer-Iter.   Inner-Iter.     Column Row Layer    Maximum-Head-Change  Column Row Layer    Maximum-Flux-Residual          L2-NORM 
          0                 1           2             4    7     1      -0.1698902736E-01       4    7    1        -0.8893354764E+00      0.2289223066E+01
          0                 2           2             4    7     1       0.1652565029E-02       4    7    1         0.8893328169E-01      0.2281913839E+00
          0                 3           2             4    7     1      -0.1125335916E-03       4    7    1        -0.6225334926E-02      0.1590674701E-01
          0                 4           1             4    7     1       0.4477816637E-05       4    7    1         0.2546165299E-03      0.6465249696E-03

    ------------------------------------------------
       NWT REQUIRED            4 OUTER ITERATIONS 
       AND A TOTAL OF          7 INNER ITERATIONS.
    ------------------------------------------------

 NO OUTPUT CONTROL FOR STRESS PERIOD    6   TIME STEP   12
 
 SOLVING FOR HEAD 
                                                   Max.-Head-Change                         Max.-Flux-Residual
  Residual-Control   Outer-Iter.   Inner-Iter.     Column Row Layer    Maximum-Head-Change  Column Row Layer    Maximum-Flux-Residual          L2-NORM 
          0                 1           2             4    7     1      -0.1686760133E-01       4    7    1        -0.8831786828E+00      0.2247163604E+01
          0                 2           2             4    7     1       0.1640753514E-02       4    7    1         0.8831759704E-01      0.2241004813E+00
          0                 3           2             4    7     1      -0.1117292724E-03       4    7    1        -0.6182237040E-02      0.1563039320E-01
          0                 4           1             4    7     1       0.4445812316E-05       4    7    1         0.2528538421E-03      0.6356188171E-03

    ------------------------------------------------
       NWT REQUIRED            4 OUTER ITERATIONS 
       AND A TOTAL OF          7 INNER ITERATIONS.
    ------------------------------------------------

 NO OUTPUT CONTROL FOR STRESS PERIOD    6   TIME STEP   13
 
 SOLVING FOR HEAD 
                                                   Max.-Head-Change                         Max.-Flux-Residual
  Residual-Control   Outer-Iter.   Inner-Iter.     Column Row Layer    Maximum-Head-Change  Column Row Layer    Maximum-Flux-Residual          L2-NORM 
          0                 1           2             4    7     1      -0.1674273374E-01       4    7    1        -0.8768233310E+00      0.2208821912E+01
          0                 2           2             4    7     1       0.1628607245E-02       4    7    1         0.8768205761E-01      0.2203618115E+00
          0                 3           1             4    7     1      -0.1109021585E-03       4    7    1        -0.6137749284E-02      0.1537776170E-01
          0                 4           1             4    7     1       0.4412902170E-05       4    7    1         0.2510342799E-03      0.6260170268E-03

    ------------------------------------------------
       NWT REQUIRED            4 OUTER ITERATIONS 
       AND A TOTAL OF          6 INNER ITERATIONS.
    ------------------------------------------------

 NO OUTPUT CONTROL FOR STRESS PERIOD    6   TIME STEP   14
 
 SOLVING FOR HEAD 
                                                   Max.-Head-Change                         Max.-Flux-Residual
  Residual-Control   Outer-Iter.   Inner-Iter.     Column Row Layer    Maximum-Head-Change  Column Row Layer    Maximum-Flux-Residual          L2-NORM 
          0                 1           2             4    7     1      -0.1661538958E-01       4    7    1        -0.8703220300E+00      0.2173652534E+01
          0                 2           2             4    7     1       0.1616220086E-02       4    7    1         0.8703192414E-01      0.2169247928E+00
          0                 3           1             4    7     1      -0.1100586396E-03       4    7    1        -0.6092239954E-02      0.1514434423E-01
          0                 4           1             4    7     1       0.4379338100E-05       4    7    1         0.2491729608E-03      0.6169008430E-03

    ------------------------------------------------
       NWT REQUIRED            4 OUTER ITERATIONS 
       AND A TOTAL OF          6 INNER ITERATIONS.
    ------------------------------------------------

 NO OUTPUT CONTROL FOR STRESS PERIOD    6   TIME STEP   15
 
 SOLVING FOR HEAD 
                                                   Max.-Head-Change                         Max.-Flux-Residual
  Residual-Control   Outer-Iter.   Inner-Iter.     Column Row Layer    Maximum-Head-Change  Column Row Layer    Maximum-Flux-Residual          L2-NORM 
          0                 1           2             4    7     1      -0.1648564671E-01       4    7    1        -0.8636798901E+00      0.2141164533E+01
          0                 2           2             4    7     1       0.1603599609E-02       4    7    1         0.8636770760E-01      0.2137428622E+00
          0                 3           1             4    7     1      -0.1091992323E-03       4    7    1        -0.6045744806E-02      0.1492748675E-01
          0                 4           1             4    7     1       0.4345141518E-05       4    7    1         0.2472713040E-03      0.6084673715E-03

    ------------------------------------------------
       NWT REQUIRED            4 OUTER ITERATIONS 
       AND A TOTAL OF          6 INNER ITERATIONS.
    ------------------------------------------------

 NO OUTPUT CONTROL FOR STRESS PERIOD    6   TIME STEP   16
 
 SOLVING FOR HEAD 
                                                   Max.-Head-Change                         Max.-Flux-Residual
  Residual-Control   Outer-Iter.   Inner-Iter.     Column Row Layer    Maximum-Head-Change  Column Row Layer    Maximum-Flux-Residual          L2-NORM 
          0                 1           2             4    7     1      -0.1635385598E-01       4    7    1        -0.8569156441E+00      0.2111005227E+01
          0                 2           2             4    7     1       0.1590779943E-02       4    7    1         0.8569128122E-01      0.2107831485E+00
          0                 3           1             4    7     1      -0.1083262608E-03       4    7    1        -0.5998394971E-02      0.1472578013E-01
          0                 4           1             4    7     1       0.4310404988E-05       4    7    1         0.2453346572E-03      0.6006235089E-03

    ------------------------------------------------
       NWT REQUIRED            4 OUTER ITERATIONS 
       AND A TOTAL OF          6 INNER ITERATIONS.
    ------------------------------------------------

 NO OUTPUT CONTROL FOR STRESS PERIOD    6   TIME STEP   17
 
 SOLVING FOR HEAD 
                                                   Max.-Head-Change                         Max.-Flux-Residual
  Residual-Control   Outer-Iter.   Inner-Iter.     Column Row Layer    Maximum-Head-Change  Column Row Layer    Maximum-Flux-Residual          L2-NORM 
          0                 1           2             4    7     1      -0.1622005283E-01       4    7    1        -0.8500320743E+00      0.2082839032E+01
          0                 2           2             4    7     1       0.1577764533E-02       4    7    1         0.8500292314E-01      0.2080136867E+00
          0                 3           1             4    7     1      -0.1074399603E-03       4    7    1        -0.5950209894E-02      0.1453621984E-01
          0                 4           1             4    7     1       0.4275138872E-05       4    7    1         0.2433639283E-03      0.5929646472E-03

    ------------------------------------------------
       NWT REQUIRED            4 OUTER ITERATIONS 
       AND A TOTAL OF          6 INNER ITERATIONS.
    ------------------------------------------------

 NO OUTPUT CONTROL FOR STRESS PERIOD    6   TIME STEP   18
 
 SOLVING FOR HEAD 
                                                   Max.-Head-Change                         Max.-Flux-Residual
  Residual-Control   Outer-Iter.   Inner-Iter.     Column Row Layer    Maximum-Head-Change  Column Row Layer    Maximum-Flux-Residual          L2-NORM 
          0                 1           2             4    7     1      -0.1608508868E-01       4    7    1        -0.8430755786E+00      0.2056419026E+01
          0                 2           2             4    7     1       0.1564636197E-02       4    7    1         0.8430727306E-01      0.2054111292E+00
          0                 3           1             4    7     1      -0.1065459689E-03       4    7    1        -0.5901514364E-02      0.1435773625E-01
          0                 4           1             4    7     1       0.4239565594E-05       4    7    1         0.2413722509E-03      0.5858614535E-03

    ------------------------------------------------
       NWT REQUIRED            4 OUTER ITERATIONS 
       AND A TOTAL OF          6 INNER ITERATIONS.
    ------------------------------------------------

 NO OUTPUT CONTROL FOR STRESS PERIOD    6   TIME STEP   19
 
 SOLVING FOR HEAD 
                                                   Max.-Head-Change                         Max.-Flux-Residual
  Residual-Control   Outer-Iter.   Inner-Iter.     Column Row Layer    Maximum-Head-Change  Column Row Layer    Maximum-Flux-Residual          L2-NORM 
          0                 1           2             4    7     1      -0.1594895310E-01       4    7    1        -0.8360456225E+00      0.2031532572E+01
          0                 2           2             4    7     1       0.1551393923E-02       4    7    1         0.8360427753E-01      0.2029556333E+00
          0                 3           1             4    7     1      -0.1056442189E-03       4    7    1        -0.5852304645E-02      0.1418871816E-01
          0                 4           1             4    7     1       0.4203684005E-05       4    7    1         0.2393595580E-03      0.5792981584E-03

    ------------------------------------------------
       NWT REQUIRED            4 OUTER ITERATIONS 
       AND A TOTAL OF          6 INNER ITERATIONS.
    ------------------------------------------------

 NO OUTPUT CONTROL FOR STRESS PERIOD    6   TIME STEP   20
 
 SOLVING FOR HEAD 
                                                   Max.-Head-Change                         Max.-Flux-Residual
  Residual-Control   Outer-Iter.   Inner-Iter.     Column Row Layer    Maximum-Head-Change  Column Row Layer    Maximum-Flux-Residual          L2-NORM 
          0                 1           2             4    7     1      -0.1581188421E-01       4    7    1        -0.8289562416E+00      0.2007970497E+01
          0                 2           2             4    7     1       0.1538060869E-02       4    7    1         0.8289534000E-01      0.2006275195E+00
          0                 3           1             4    7     1      -0.1047362875E-03       4    7    1        -0.5802678992E-02      0.1402821898E-01
          0                 4           1             4    7     1       0.4167557195E-05       4    7    1         0.2373298819E-03      0.5727909516E-03

    ------------------------------------------------
       NWT REQUIRED            4 OUTER ITERATIONS 
       AND A TOTAL OF          6 INNER ITERATIONS.
    ------------------------------------------------

 NO OUTPUT CONTROL FOR STRESS PERIOD    6   TIME STEP   21
 
 SOLVING FOR HEAD 
                                                   Max.-Head-Change                         Max.-Flux-Residual
  Residual-Control   Outer-Iter.   Inner-Iter.     Column Row Layer    Maximum-Head-Change  Column Row Layer    Maximum-Flux-Residual          L2-NORM 
          0                 1           2             4    7     1      -0.1567384545E-01       4    7    1        -0.8218049694E+00      0.1985602270E+01
          0                 2           2             4    7     1       0.1524633480E-02       4    7    1         0.8218021383E-01      0.1984143116E+00
          0                 3           1             4    7     1      -0.1038219320E-03       4    7    1        -0.5752620136E-02      0.1387555995E-01
          0                 4           1             4    7     1       0.4131173880E-05       4    7    1         0.2352824649E-03      0.5667984954E-03

    ------------------------------------------------
       NWT REQUIRED            4 OUTER ITERATIONS 
       AND A TOTAL OF          6 INNER ITERATIONS.
    ------------------------------------------------

 NO OUTPUT CONTROL FOR STRESS PERIOD    6   TIME STEP   22
 
 SOLVING FOR HEAD 
                                                   Max.-Head-Change                         Max.-Flux-Residual
  Residual-Control   Outer-Iter.   Inner-Iter.     Column Row Layer    Maximum-Head-Change  Column Row Layer    Maximum-Flux-Residual          L2-NORM 
          0                 1           2             4    7     1      -0.1553559312E-01       4    7    1        -0.8146341074E+00      0.1964279853E+01
          0                 2           2             4    7     1       0.1511185322E-02       4    7    1         0.8146312902E-01      0.1963022525E+00
          0                 3           1             4    7     1      -0.1029061627E-03       4    7    1        -0.5702424172E-02      0.1372958058E-01
          0                 4           1             4    7     1       0.4094735534E-05       4    7    1         0.2332294746E-03      0.5607327378E-03

    ------------------------------------------------
       NWT REQUIRED            4 OUTER ITERATIONS 
       AND A TOTAL OF          6 INNER ITERATIONS.
    ------------------------------------------------

 NO OUTPUT CONTROL FOR STRESS PERIOD    6   TIME STEP   23
 
 SOLVING FOR HEAD 
                                                   Max.-Head-Change                         Max.-Flux-Residual
  Residual-Control   Outer-Iter.   Inner-Iter.     Column Row Layer    Maximum-Head-Change  Column Row Layer    Maximum-Flux-Residual          L2-NORM 
          0                 1           2             4    7     1      -0.1539703610E-01       4    7    1        -0.8074381964E+00      0.1943908407E+01
          0                 2           2             4    7     1       0.1497707531E-02       4    7    1         0.8074353971E-01      0.1942820574E+00
          0                 3           1             4    7     1      -0.1019883742E-03       4    7    1        -0.5652052862E-02      0.1358972354E-01
          0                 4           1             4    7     1       0.4058214986E-05       4    7    1         0.2311692535E-03      0.5551192072E-03

    ------------------------------------------------
       NWT REQUIRED            4 OUTER ITERATIONS 
       AND A TOTAL OF          6 INNER ITERATIONS.
    ------------------------------------------------

 NO OUTPUT CONTROL FOR STRESS PERIOD    6   TIME STEP   24
 
 SOLVING FOR HEAD 
                                                   Max.-Head-Change                         Max.-Flux-Residual
  Residual-Control   Outer-Iter.   Inner-Iter.     Column Row Layer    Maximum-Head-Change  Column Row Layer    Maximum-Flux-Residual          L2-NORM 
          0                 1           2             4    7     1      -0.1525835403E-01       4    7    1        -0.8002275612E+00      0.1924394605E+01
          0                 2           2             4    7     1       0.1484217582E-02       4    7    1         0.8002247828E-01      0.1923451755E+00
          0                 3           1             4    7     1      -0.1010697584E-03       4    7    1        -0.5601578526E-02      0.1345523363E-01
          0                 4           1             4    7     1       0.4021662434E-05       4    7    1         0.2291048511E-03      0.5496935525E-03

    ------------------------------------------------
       NWT REQUIRED            4 OUTER ITERATIONS 
       AND A TOTAL OF          6 INNER ITERATIONS.
    ------------------------------------------------

 NO OUTPUT CONTROL FOR STRESS PERIOD    6   TIME STEP   25
 
 SOLVING FOR HEAD 
                                                   Max.-Head-Change                         Max.-Flux-Residual
  Residual-Control   Outer-Iter.   Inner-Iter.     Column Row Layer    Maximum-Head-Change  Column Row Layer    Maximum-Flux-Residual          L2-NORM 
          0                 1           2             4    7     1      -0.1511943711E-01       4    7    1        -0.7929963491E+00      0.1905649530E+01
          0                 2           2             4    7     1       0.1470704791E-02       4    7    1         0.7929935947E-01      0.1904830250E+00
          0                 3           1             4    7     1      -0.1001495874E-03       4    7    1        -0.5550960176E-02      0.1332638007E-01
          0                 4           1             4    7     1       0.3985047943E-05       4    7    1         0.2270345587E-03      0.5446272338E-03

    ------------------------------------------------
       NWT REQUIRED            4 OUTER ITERATIONS 
       AND A TOTAL OF          6 INNER ITERATIONS.
    ------------------------------------------------

 NO OUTPUT CONTROL FOR STRESS PERIOD    6   TIME STEP   26
 
 SOLVING FOR HEAD 
                                                   Max.-Head-Change                         Max.-Flux-Residual
  Residual-Control   Outer-Iter.   Inner-Iter.     Column Row Layer    Maximum-Head-Change  Column Row Layer    Maximum-Flux-Residual          L2-NORM 
          0                 1           2             4    7     1      -0.1498098947E-01       4    7    1        -0.7857832958E+00      0.1887606660E+01
          0                 2           2             4    7     1       0.1457237653E-02       4    7    1         0.7857805678E-01      0.1886892323E+00
          0                 3           1             4    7     1      -0.9923252463E-04       4    7    1        -0.5500468932E-02      0.1320168430E-01

    ------------------------------------------------
       NWT REQUIRED            3 OUTER ITERATIONS 
       AND A TOTAL OF          5 INNER ITERATIONS.
    ------------------------------------------------

 NO OUTPUT CONTROL FOR STRESS PERIOD    6   TIME STEP   27
 
 SOLVING FOR HEAD 
                                                   Max.-Head-Change                         Max.-Flux-Residual
  Residual-Control   Outer-Iter.   Inner-Iter.     Column Row Layer    Maximum-Head-Change  Column Row Layer    Maximum-Flux-Residual          L2-NORM 
          0                 1           2             4    7     1      -0.1484253549E-01       4    7    1        -0.7785631742E+00      0.1870192524E+01
          0                 2           2             4    7     1       0.1443769901E-02       4    7    1         0.7785604751E-01      0.1869568624E+00
          0                 3           1             4    7     1      -0.9831542067E-04       4    7    1        -0.5449928241E-02      0.1308123196E-01

    ------------------------------------------------
       NWT REQUIRED            3 OUTER ITERATIONS 
       AND A TOTAL OF          5 INNER ITERATIONS.
    ------------------------------------------------

 NO OUTPUT CONTROL FOR STRESS PERIOD    6   TIME STEP   28
 
 SOLVING FOR HEAD 
                                                   Max.-Head-Change                         Max.-Flux-Residual
  Residual-Control   Outer-Iter.   Inner-Iter.     Column Row Layer    Maximum-Head-Change  Column Row Layer    Maximum-Flux-Residual          L2-NORM 
          0                 1           2             4    7     1      -0.1470480662E-01       4    7    1        -0.7713755680E+00      0.1853379764E+01
          0                 2           2             4    7     1       0.1430372684E-02       4    7    1         0.7713728992E-01      0.1852830857E+00
          0                 3           1             4    7     1      -0.9740311905E-04       4    7    1        -0.5399615149E-02      0.1296478731E-01

    ------------------------------------------------
       NWT REQUIRED            3 OUTER ITERATIONS 
       AND A TOTAL OF          5 INNER ITERATIONS.
    ------------------------------------------------

 NO OUTPUT CONTROL FOR STRESS PERIOD    6   TIME STEP   29
 
 SOLVING FOR HEAD 
                                                   Max.-Head-Change                         Max.-Flux-Residual
  Residual-Control   Outer-Iter.   Inner-Iter.     Column Row Layer    Maximum-Head-Change  Column Row Layer    Maximum-Flux-Residual          L2-NORM 
          0                 1           2             4    7     1      -0.1456766376E-01       4    7    1        -0.7642112292E+00      0.1823030637E+01
          0                 2           2             4    7     1       0.1417032475E-02       4    7    1         0.7642085931E-01      0.1822917695E+00
          0                 3           1             4    7     1      -0.9649470029E-04       4    7    1        -0.5349464970E-02      0.1275946078E-01

    ------------------------------------------------
       NWT REQUIRED            3 OUTER ITERATIONS 
       AND A TOTAL OF          5 INNER ITERATIONS.
    ------------------------------------------------

 NO OUTPUT CONTROL FOR STRESS PERIOD    6   TIME STEP   30



 STREAM LISTING     PERIOD      6   STEP       30

 LAYER ROW COL. STREAM  RCH.  FLOW INTO     FLOW TO   FLOW OUT OF   OVRLND.     DIRECT     STREAM       STREAM     STREAM     STREAM   STREAMBED  STREAMBED
                SEG.NO.  NO.  STRM. RCH.    AQUIFER    STRM. RCH.    RUNOFF     PRECIP       ET          HEAD       DEPTH      WIDTH   CONDCTNC.   GRADIENT

   1    1    1     1     1    9.2355E+01  4.5966E-01   9.1895E+01  0.000E+00  0.000E+00  0.000E+00  1.09482E+03  1.771E+00  2.141E+01  9.635E-02  1.590E+00
   1    2    2     1     2    9.1895E+01  7.1318E-01   9.1182E+01  0.000E+00  0.000E+00  0.000E+00  1.08983E+03  1.769E+00  2.136E+01  1.496E-01  1.590E+00
   1    3    3     1     3    9.1182E+01  6.0950E-01   9.0573E+01  0.000E+00  0.000E+00  0.000E+00  1.08418E+03  1.766E+00  2.131E+01  1.279E-01  1.589E+00
   1    3    4     1     4    9.0573E+01  5.6231E-01   9.0010E+01  0.000E+00  0.000E+00  0.000E+00  1.07917E+03  1.764E+00  2.127E+01  1.180E-01  1.588E+00
   1    4    5     2     1    8.8010E+01  4.3413E-01   8.7576E+01  0.000E+00  0.000E+00  0.000E+00  1.07450E+03  2.566E+00  1.200E+01  7.800E-02  1.855E+00
   1    5    6     2     2    8.7576E+01  3.3354E-01   8.7243E+01  0.000E+00  0.000E+00  0.000E+00  1.06907E+03  2.559E+00  1.200E+01  6.000E-02  1.853E+00
   1    6    6     2     3    8.7243E+01  3.3319E-01   8.6909E+01  0.000E+00  0.000E+00  0.000E+00  1.06435E+03  2.553E+00  1.200E+01  6.000E-02  1.851E+00
   1    7    6     2     4    8.6909E+01  3.3284E-01   8.6576E+01  0.000E+00  0.000E+00  0.000E+00  1.05962E+03  2.547E+00  1.200E+01  6.000E-02  1.849E+00
   1    8    6     2     5    8.6576E+01  3.3249E-01   8.6244E+01  0.000E+00  0.000E+00  0.000E+00  1.05490E+03  2.541E+00  1.200E+01  6.000E-02  1.847E+00
   1    3    5     3     1    2.0000E+00  2.8252E-01   1.7175E+00  0.000E+00  0.000E+00  0.000E+00  1.07555E+03  1.909E+00  9.636E+00  7.227E-02  1.955E+00
   1    3    6     3     2    1.7175E+00  2.4905E-01   1.4684E+00  0.000E+00  0.000E+00  0.000E+00  1.07264E+03  1.727E+00  8.909E+00  6.682E-02  1.864E+00
   1    3    7     3     3    1.4684E+00  1.9718E-01   1.2712E+00  0.000E+00  0.000E+00  0.000E+00  1.06987E+03  1.555E+00  8.218E+00  5.547E-02  1.777E+00
   1    4    8     3     4    1.2712E+00  2.2567E-01   1.0456E+00  0.000E+00  0.000E+00  0.000E+00  1.06682E+03  1.364E+00  7.455E+00  6.709E-02  1.682E+00
   1    5    8     3     5    1.0456E+00  1.5790E-01   8.8768E-01  0.000E+00  0.000E+00  0.000E+00  1.06362E+03  1.164E+00  6.655E+00  4.991E-02  1.582E+00
   1    6    8     3     6    8.8768E-01  5.5980E-02   8.3170E-01  0.000E+00  0.000E+00  0.000E+00  1.06158E+03  1.036E+00  6.145E+00  1.844E-02  1.518E+00
   1    5   10     4     1    1.0000E+01  9.0919E-02   9.9091E+00  0.000E+00  0.000E+00  0.000E+00  1.07836E+03  6.368E-01  1.000E+01  2.500E-02  1.212E+00
   1    5    9     4     2    9.9091E+00  1.8158E-01   9.7275E+00  0.000E+00  0.000E+00  0.000E+00  1.07154E+03  6.315E-01  1.000E+01  5.000E-02  1.211E+00
   1    6    8     4     3    9.7275E+00  1.2689E-01   9.6006E+00  0.000E+00  0.000E+00  0.000E+00  1.06381E+03  6.256E-01  1.000E+01  3.500E-02  1.209E+00
   1    6    8     5     1    1.0432E+01  2.2686E-01   1.0205E+01  0.000E+00  0.000E+00  0.000E+00  1.05868E+03  6.790E-01  1.542E+01  6.166E-02  1.226E+00
   1    7    7     5     2    1.0205E+01  2.7894E-01   9.9265E+00  0.000E+00  0.000E+00  0.000E+00  1.05417E+03  6.732E-01  1.519E+01  7.594E-02  1.224E+00
   1    8    7     5     3    9.9265E+00  1.9221E-01   9.7343E+00  0.000E+00  0.000E+00  0.000E+00  1.04992E+03  6.676E-01  1.497E+01  5.241E-02  1.223E+00
   1    8    6     5     4    9.7343E+00  1.3577E-01   9.5985E+00  0.000E+00  0.000E+00  0.000E+00  1.04691E+03  6.637E-01  1.482E+01  3.706E-02  1.221E+00
   1    9    6     6     1    9.5843E+01  3.4390E-01   9.5499E+01  0.000E+00  0.000E+00  0.000E+00  1.04546E+03  2.732E+00  1.200E+01  6.000E-02  1.911E+00
   1   10    7     6     2    9.5499E+01  3.4355E-01   9.5155E+01  0.000E+00  0.000E+00  0.000E+00  1.04091E+03  2.726E+00  1.200E+01  6.000E-02  1.909E+00
   1   11    7     6     3    9.5155E+01  3.4320E-01   9.4812E+01  0.000E+00  0.000E+00  0.000E+00  1.03636E+03  2.720E+00  1.200E+01  6.000E-02  1.907E+00
   1   12    7     6     4    9.4812E+01  3.4284E-01   9.4469E+01  0.000E+00  0.000E+00  0.000E+00  1.03180E+03  2.714E+00  1.200E+01  6.000E-02  1.905E+00
   1   13    7     6     5    9.4469E+01  3.3805E-02   9.4435E+01  0.000E+00  0.000E+00  0.000E+00  1.02862E+03  2.711E+00  1.200E+01  2.400E-02  4.695E-01
   1   14    9     7     1    1.5000E+02  1.3319E+00   1.4867E+02  0.000E+00  0.000E+00  0.000E+00  1.03987E+03  2.288E+00  5.529E+01  5.593E-01  7.938E-01
   1   13    8     7     2    1.4867E+02  1.8070E+00   1.4686E+02  0.000E+00  0.000E+00  0.000E+00  1.03478E+03  2.279E+00  5.526E+01  6.148E-01  9.797E-01
   1   13    7     7     3    1.4686E+02  1.3844E+00   1.4548E+02  0.000E+00  0.000E+00  0.000E+00  1.02969E+03  2.271E+00  5.522E+01  5.585E-01  8.263E-01
   1   13    6     8     1    2.3991E+02  1.1020E+00   2.3881E+02  0.000E+00  0.000E+00  0.000E+00  1.02523E+03  3.356E+00  4.867E+01  4.959E-01  7.407E-01
   1   13    5     8     2    2.3881E+02  2.5246E-01   2.3856E+02  0.000E+00  0.000E+00  0.000E+00  1.01898E+03  3.353E+00  4.862E+01  4.954E-01  1.699E-01
   1   13    4     8     3    2.3856E+02 -2.1636E+00   2.4072E+02  0.000E+00  0.000E+00  0.000E+00  1.01273E+03  3.358E+00  4.869E+01  4.962E+00 -1.454E-01
   1   13    3     8     4    2.4072E+02 -3.3685E+00   2.4409E+02  0.000E+00  0.000E+00  0.000E+00  1.00650E+03  3.372E+00  4.890E+01  4.983E+00 -2.253E-01
   1   13    2     8     5    2.4409E+02 -2.5231E+00   2.4661E+02  0.000E+00  0.000E+00  0.000E+00  1.00026E+03  3.388E+00  4.912E+01  5.006E+00 -1.680E-01
   1   13    1     8     6    2.4661E+02 -1.8906E+00   2.4850E+02  0.000E+00  0.000E+00  0.000E+00  9.95274E+02  3.399E+00  4.929E+01  3.013E+00 -2.091E-01





UNSATURATED ZONE PACKAGE VOLUMETRIC BUDGET FOR  TIME STEP    30 STRESS PERIOD    6
  ------------------------------------------------------------------------------



     CUMULATIVE VOLUMES      L**3       RATES FOR THIS TIME STEP      L**3/T
     ------------------                 ------------------------

           IN:                                      IN:
           ---                                      ---
        INFILTRATION =    86822174.7517          INFILTRATION =          11.5947

          OUT:                                     OUT:
          ----                                     ----
              UZF ET =    66350461.1067                UZF ET =          11.6075
        UZF RECHARGE =       73224.0000          UZF RECHARGE =       0.0000E+00

            IN - OUT =    20398489.6450              IN - OUT =      -1.2848E-02

          STORAGE:                                 STORAGE:
          --------                                 --------
      STORAGE CHANGE =    20399194.9748        STORAGE CHANGE =      -1.2848E-02

 PERCENT DISCREPANCY IS DIFFERENCE BETWEEN IN-OUT MINUS CHANGE IN STORAGE
 DIVIDED BY THE AVERAGE OF IN AND OUT TIMES 100

 PERCENT DISCREPANCY =          -0.00     PERCENT DISCREPANCY =           0.00






1
  VOLUMETRIC BUDGET FOR ENTIRE MODEL AT END OF TIME STEP   30, STRESS PERIOD   6
  ------------------------------------------------------------------------------

     CUMULATIVE VOLUMES      L**3       RATES FOR THIS TIME STEP      L**3/T
     ------------------                 ------------------------

           IN:                                      IN:
           ---                                      ---
               AG WELLS  =    28790330.0000                 AG WELLS  =           7.1872
      DIVERSION SEGMENTS =           0.0000        DIVERSION SEGMENTS =           0.0000
           GW IRRIGATION =           0.0000             GW IRRIGATION =           0.0000
           SW IRRIGATION =           0.0000             SW IRRIGATION =           0.0000
        SYSTEM LOSSES GW =           0.0000          SYSTEM LOSSES GW =           0.0000
        SYSTEM LOSSES SW =           0.0000          SYSTEM LOSSES SW =           0.0000

                TOTAL IN =    28790330.0000                  TOTAL IN =           7.1872

          OUT:                                     OUT:
          ----                                     ----
               AG WELLS  =           0.0000                 AG WELLS  =           0.0000
      DIVERSION SEGMENTS =           0.0000        DIVERSION SEGMENTS =           0.0000
           GW IRRIGATION =    28790330.0000             GW IRRIGATION =           7.1872
           SW IRRIGATION =           0.0000             SW IRRIGATION =           0.0000
        SYSTEM LOSSES GW =           0.0000          SYSTEM LOSSES GW =           0.0000
        SYSTEM LOSSES SW =           0.0000          SYSTEM LOSSES SW =           0.0000

               TOTAL OUT =    28790330.0000                 TOTAL OUT =           7.1872

                IN - OUT =           0.0000                  IN - OUT =           0.0000

     PERCENT DISCREPANCY =           0.00         PERCENT DISCREPANCY =           0.00



1
  VOLUMETRIC BUDGET FOR ENTIRE MODEL AT END OF TIME STEP   30, STRESS PERIOD   6
  ------------------------------------------------------------------------------

     CUMULATIVE VOLUMES      L**3       RATES FOR THIS TIME STEP      L**3/T
     ------------------                 ------------------------

           IN:                                      IN:
           ---                                      ---
             STORAGE     =    36315064.0000               STORAGE     =           6.7366
       CONSTANT HEAD     =           0.0000         CONSTANT HEAD     =           0.0000
     HEAD DEP BOUNDS     =     3778269.5000       HEAD DEP BOUNDS     =           0.2855
      STREAM LEAKAGE     =   166668528.0000        STREAM LEAKAGE     =          13.7973
        UZF RECHARGE     =       73223.9531          UZF RECHARGE     =           0.0000
               GW ET     =           0.0000                 GW ET     =           0.0000
     SURFACE LEAKAGE     =           0.0000       SURFACE LEAKAGE     =           0.0000
           AG WELLS      =           0.0000             AG WELLS      =           0.0000

                TOTAL IN =   206835072.0000                  TOTAL IN =          20.8194

          OUT:                                     OUT:
          ----                                     ----
             STORAGE     =    37552148.0000               STORAGE     =           2.5661
       CONSTANT HEAD     =           0.0000         CONSTANT HEAD     =           0.0000
     HEAD DEP BOUNDS     =     3885211.5000       HEAD DEP BOUNDS     =           0.3003
      STREAM LEAKAGE     =   134705552.0000        STREAM LEAKAGE     =           9.9458
        UZF RECHARGE     =           0.0000          UZF RECHARGE     =           0.0000
               GW ET     =     1904954.2500                 GW ET     =           0.8188
     SURFACE LEAKAGE     =           0.0000       SURFACE LEAKAGE     =           0.0000
           AG WELLS      =    28790330.0000             AG WELLS      =           7.1872

               TOTAL OUT =   206838208.0000                 TOTAL OUT =          20.8182

                IN - OUT =       -3136.0000                  IN - OUT =       1.1978E-03

     PERCENT DISCREPANCY =          -0.00         PERCENT DISCREPANCY =           0.01






         TIME SUMMARY AT END OF TIME STEP   30 IN STRESS PERIOD    6
                    SECONDS     MINUTES      HOURS       DAYS        YEARS
                    -----------------------------------------------------------
   TIME STEP LENGTH  87667.      1461.1      24.352      1.0147     2.77799E-03
 STRESS PERIOD TIME 2.63000E+06  43833.      730.56      30.440     8.33397E-02
         TOTAL TIME 1.32364E+07 2.20607E+05  3676.8      153.20     0.41944    
1
1
                            STRESS PERIOD NO.    7, LENGTH =   2630000.    
                            -----------------------------------------------

                              NUMBER OF TIME STEPS =    30

                               MULTIPLIER FOR DELT =     1.000

                            INITIAL TIME STEP SIZE =   87666.66    

 REUSING NON-PARAMETER GHB CELLS FROM LAST STRESS PERIOD

      2 GHB CELLS

 REUSING STREAM SEGMENT DATA FROM LAST STRESS PERIOD



            AREAL INFILTRATION RATE
 READING ON UNIT   19 WITH FORMAT: (10F4.0)            

            1           2           3           4           5           6           7           8           9          10
 ........................................................................................................................
   1   1.2000E-09   0.000       0.000       0.000       0.000       0.000       0.000       0.000       0.000       0.000    
   2   2.1000E-09  2.0000E-09  8.0000E-10  8.5000E-09   0.000       0.000       0.000       0.000       0.000       0.000    
   3   5.0000E-10  1.1000E-09  8.8000E-09  5.5000E-09   0.000       0.000       0.000       0.000       0.000       0.000    
   4   8.5000E-09  1.1000E-09  1.1000E-09  1.1000E-09  2.0000E-09   0.000       0.000       0.000       0.000       0.000    
   5   8.5000E-09  1.1000E-09  1.1000E-09  1.1000E-09  1.1000E-09   0.000       0.000       0.000       0.000       0.000    
   6   8.5000E-09  5.2000E-09  2.1000E-09  1.1000E-09  1.5000E-09   0.000       0.000       0.000       0.000       0.000    
   7   8.5000E-09  5.2000E-09  2.1000E-09  1.2000E-09  2.0000E-09   0.000       0.000       0.000       0.000       0.000    
   8   5.0000E-10  5.2000E-09  2.1000E-09  1.2000E-09  5.0000E-09   0.000       0.000       0.000       0.000       0.000    
   9   5.0000E-10  5.2000E-09  2.1000E-09  1.2000E-09  5.0000E-09   0.000       0.000       0.000       0.000       0.000    
  10   5.0000E-10  5.2000E-09  2.1000E-09  1.2000E-09  5.8000E-09   0.000       0.000       0.000       0.000       0.000    
  11   1.0000E-10  1.1000E-09  1.1000E-09  1.2000E-09  5.0000E-09   0.000       0.000       0.000       0.000       0.000    
  12   1.1000E-09  1.1000E-09  1.1000E-09  1.1000E-09  2.0000E-09   0.000       0.000       0.000       0.000       0.000    
  13   1.1000E-09  2.2000E-09  2.2000E-09  2.1000E-09  1.0000E-09   0.000       0.000       0.000       0.000       0.000    
  14   2.0000E-10  5.5000E-09  5.5000E-09  5.2000E-09  1.0000E-09   0.000       0.000       0.000       0.000       0.000    
  15    0.000      8.8000E-09  8.8000E-09   0.000       0.000       0.000       0.000       0.000       0.000       0.000    

                  ET RATE =  1.500000E-07

 USING ET EXTINCTION DEPTH FROM PREVIOUS STRESS PERIOD. CURRENT PERIOD IS:       7

 USING EXTINCTION WATER CONTENT FROM PREVIOUS STRESS PERIOD. CURRENT PERIOD IS:       7

 USING AIR ENTRY PRESSURE FROM PREVIOUS STRESS PERIOD. CURRENT PERIOD IS:       7

 USING ROOT PRESSURE HEAD FROM PREVIOUS STRESS PERIOD. CURRENT PERIOD IS:       7

 USING ROOT ACTIVITY FROM PREVIOUS STRESS PERIOD. CURRENT PERIOD IS:       7

 PROCESSING AG STRESS PERIOD DATA

 READING AG STRESS PERIOD DATA

 READING IRRIGATION WELL

 END PROCESSING AG STRESS PERIOD DATA OPTIONS
 
 SOLVING FOR HEAD 
                                                   Max.-Head-Change                         Max.-Flux-Residual
  Residual-Control   Outer-Iter.   Inner-Iter.     Column Row Layer    Maximum-Head-Change  Column Row Layer    Maximum-Flux-Residual          L2-NORM 
          0                 1           2             4    7     1      -0.6231148571E-01       4    7    1        -0.3257063067E+01      0.7890670135E+01
          0                 2           2             4    7     1       0.6061172264E-02       4    7    1         0.3257039962E+00      0.7884565070E+00
          0                 3           2             4    7     1      -0.4127437147E-03       4    7    1        -0.2279931146E-01      0.5513768964E-01
          0                 4           1             4    7     1       0.1642345714E-04       4    7    1         0.9324930370E-03      0.2251600391E-02

    ------------------------------------------------
       NWT REQUIRED            4 OUTER ITERATIONS 
       AND A TOTAL OF          7 INNER ITERATIONS.
    ------------------------------------------------

 NO OUTPUT CONTROL FOR STRESS PERIOD    7   TIME STEP    1
 
 SOLVING FOR HEAD 
                                                   Max.-Head-Change                         Max.-Flux-Residual
  Residual-Control   Outer-Iter.   Inner-Iter.     Column Row Layer    Maximum-Head-Change  Column Row Layer    Maximum-Flux-Residual          L2-NORM 
          0                 1           2             4    7     1      -0.6160617864E-01       4    7    1        -0.3221340474E+01      0.7665740462E+01
          0                 2           2             4    7     1       0.5992563031E-02       4    7    1         0.3221315907E+00      0.7661496671E+00
          0                 3           2             4    7     1      -0.4080717006E-03       4    7    1        -0.2254924434E-01      0.5359290785E-01
          0                 4           1             4    7     1       0.1623755301E-04       4    7    1         0.9222652709E-03      0.2189772694E-02

    ------------------------------------------------
       NWT REQUIRED            4 OUTER ITERATIONS 
       AND A TOTAL OF          7 INNER ITERATIONS.
    ------------------------------------------------

 NO OUTPUT CONTROL FOR STRESS PERIOD    7   TIME STEP    2
 
 SOLVING FOR HEAD 
                                                   Max.-Head-Change                         Max.-Flux-Residual
  Residual-Control   Outer-Iter.   Inner-Iter.     Column Row Layer    Maximum-Head-Change  Column Row Layer    Maximum-Flux-Residual          L2-NORM 
          0                 1           2             4    7     1      -0.6120867408E-01       4    7    1        -0.3201657089E+01      0.7516774387E+01
          0                 2           2             4    7     1       0.5953894454E-02       4    7    1         0.3201630963E+00      0.7513788680E+00
          0                 3           2             4    7     1      -0.4054385353E-03       4    7    1        -0.2241145113E-01      0.5257055485E-01
          0                 4           1             4    7     1       0.1613277722E-04       4    7    1         0.9166295197E-03      0.2148553629E-02

    ------------------------------------------------
       NWT REQUIRED            4 OUTER ITERATIONS 
       AND A TOTAL OF          7 INNER ITERATIONS.
    ------------------------------------------------

 NO OUTPUT CONTROL FOR STRESS PERIOD    7   TIME STEP    3
 
 SOLVING FOR HEAD 
                                                   Max.-Head-Change                         Max.-Flux-Residual
  Residual-Control   Outer-Iter.   Inner-Iter.     Column Row Layer    Maximum-Head-Change  Column Row Layer    Maximum-Flux-Residual          L2-NORM 
          0                 1           2             4    7     1      -0.6079372863E-01       4    7    1        -0.3180970114E+01      0.7385118958E+01
          0                 2           2             4    7     1       0.5913529639E-02       4    7    1         0.3180942624E+00      0.7383024164E+00
          0                 3           2             4    7     1      -0.4026898600E-03       4    7    1        -0.2226663399E-01      0.5166316364E-01
          0                 4           1             4    7     1       0.1602340439E-04       4    7    1         0.9107064789E-03      0.2112023278E-02

    ------------------------------------------------
       NWT REQUIRED            4 OUTER ITERATIONS 
       AND A TOTAL OF          7 INNER ITERATIONS.
    ------------------------------------------------

 NO OUTPUT CONTROL FOR STRESS PERIOD    7   TIME STEP    4
 
 SOLVING FOR HEAD 
                                                   Max.-Head-Change                         Max.-Flux-Residual
  Residual-Control   Outer-Iter.   Inner-Iter.     Column Row Layer    Maximum-Head-Change  Column Row Layer    Maximum-Flux-Residual          L2-NORM 
          0                 1           2             4    7     1      -0.6036291318E-01       4    7    1        -0.3159366428E+01      0.7266321805E+01
          0                 2           2             4    7     1       0.5871621367E-02       4    7    1         0.3159337753E+00      0.7264848219E+00
          0                 3           2             4    7     1      -0.3998360785E-03       4    7    1        -0.2211540096E-01      0.5084134416E-01
          0                 4           1             4    7     1       0.1590984966E-04       4    7    1         0.9045210279E-03      0.2078782722E-02

    ------------------------------------------------
       NWT REQUIRED            4 OUTER ITERATIONS 
       AND A TOTAL OF          7 INNER ITERATIONS.
    ------------------------------------------------

 OUTPUT CONTROL FOR STRESS PERIOD    7   TIME STEP    5
    PRINT BUDGET
    SAVE BUDGET
 UBDSV1 SAVING "         STORAGE" ON UNIT 102 AT TIME STEP  5, STRESS PERIOD   7
 UBDSV2 SAVING "   CONSTANT HEAD" ON UNIT 102 AT TIME STEP  5, STRESS PERIOD   7
 UBDSV1 SAVING "FLOW RIGHT FACE " ON UNIT 102 AT TIME STEP  5, STRESS PERIOD   7
 UBDSV1 SAVING "FLOW FRONT FACE " ON UNIT 102 AT TIME STEP  5, STRESS PERIOD   7

  HEAD DEP BOUNDS   PERIOD    7   STEP     5
 BOUNDARY      1   LAYER   1   ROW    13   COL     1   RATE   -0.300150    
 BOUNDARY      2   LAYER   1   ROW    14   COL     9   RATE    0.285491    



 STREAM LISTING     PERIOD      7   STEP        5

 LAYER ROW COL. STREAM  RCH.  FLOW INTO     FLOW TO   FLOW OUT OF   OVRLND.     DIRECT     STREAM       STREAM     STREAM     STREAM   STREAMBED  STREAMBED
                SEG.NO.  NO.  STRM. RCH.    AQUIFER    STRM. RCH.    RUNOFF     PRECIP       ET          HEAD       DEPTH      WIDTH   CONDCTNC.   GRADIENT

   1    1    1     1     1    8.3000E+01  4.4019E-01   8.2560E+01  0.000E+00  0.000E+00  0.000E+00  1.09478E+03  1.734E+00  2.066E+01  9.299E-02  1.578E+00
   1    2    2     1     2    8.2560E+01  6.8286E-01   8.1877E+01  0.000E+00  0.000E+00  0.000E+00  1.08979E+03  1.731E+00  2.062E+01  1.443E-01  1.577E+00
   1    3    3     1     3    8.1877E+01  5.8349E-01   8.1294E+01  0.000E+00  0.000E+00  0.000E+00  1.08415E+03  1.729E+00  2.057E+01  1.234E-01  1.576E+00
   1    3    4     1     4    8.1294E+01  5.3822E-01   8.0756E+01  0.000E+00  0.000E+00  0.000E+00  1.07913E+03  1.726E+00  2.052E+01  1.139E-01  1.575E+00
   1    4    5     2     1    7.8756E+01  4.2120E-01   7.8334E+01  0.000E+00  0.000E+00  0.000E+00  1.07433E+03  2.400E+00  1.200E+01  7.800E-02  1.800E+00
   1    5    6     2     2    7.8334E+01  3.2359E-01   7.8011E+01  0.000E+00  0.000E+00  0.000E+00  1.06890E+03  2.393E+00  1.200E+01  6.000E-02  1.798E+00
   1    6    6     2     3    7.8011E+01  3.2323E-01   7.7688E+01  0.000E+00  0.000E+00  0.000E+00  1.06418E+03  2.387E+00  1.200E+01  6.000E-02  1.796E+00
   1    7    6     2     4    7.7688E+01  3.2288E-01   7.7365E+01  0.000E+00  0.000E+00  0.000E+00  1.05946E+03  2.381E+00  1.200E+01  6.000E-02  1.794E+00
   1    8    6     2     5    7.7365E+01  3.2252E-01   7.7042E+01  0.000E+00  0.000E+00  0.000E+00  1.05473E+03  2.375E+00  1.200E+01  6.000E-02  1.792E+00
   1    3    5     3     1    2.0000E+00  2.8252E-01   1.7175E+00  0.000E+00  0.000E+00  0.000E+00  1.07555E+03  1.909E+00  9.636E+00  7.227E-02  1.955E+00
   1    3    6     3     2    1.7175E+00  2.4905E-01   1.4684E+00  0.000E+00  0.000E+00  0.000E+00  1.07264E+03  1.727E+00  8.909E+00  6.682E-02  1.864E+00
   1    3    7     3     3    1.4684E+00  1.9718E-01   1.2712E+00  0.000E+00  0.000E+00  0.000E+00  1.06987E+03  1.555E+00  8.218E+00  5.547E-02  1.777E+00
   1    4    8     3     4    1.2712E+00  2.2567E-01   1.0456E+00  0.000E+00  0.000E+00  0.000E+00  1.06682E+03  1.364E+00  7.455E+00  6.709E-02  1.682E+00
   1    5    8     3     5    1.0456E+00  1.5790E-01   8.8768E-01  0.000E+00  0.000E+00  0.000E+00  1.06362E+03  1.164E+00  6.655E+00  4.991E-02  1.582E+00
   1    6    8     3     6    8.8768E-01  5.5980E-02   8.3170E-01  0.000E+00  0.000E+00  0.000E+00  1.06158E+03  1.036E+00  6.145E+00  1.844E-02  1.518E+00
   1    5   10     4     1    1.0000E+01  9.0919E-02   9.9091E+00  0.000E+00  0.000E+00  0.000E+00  1.07836E+03  6.368E-01  1.000E+01  2.500E-02  1.212E+00
   1    5    9     4     2    9.9091E+00  1.8158E-01   9.7275E+00  0.000E+00  0.000E+00  0.000E+00  1.07154E+03  6.315E-01  1.000E+01  5.000E-02  1.211E+00
   1    6    8     4     3    9.7275E+00  1.2689E-01   9.6006E+00  0.000E+00  0.000E+00  0.000E+00  1.06381E+03  6.256E-01  1.000E+01  3.500E-02  1.209E+00
   1    6    8     5     1    1.0432E+01  2.2686E-01   1.0205E+01  0.000E+00  0.000E+00  0.000E+00  1.05868E+03  6.790E-01  1.542E+01  6.166E-02  1.226E+00
   1    7    7     5     2    1.0205E+01  2.7894E-01   9.9265E+00  0.000E+00  0.000E+00  0.000E+00  1.05417E+03  6.732E-01  1.519E+01  7.594E-02  1.224E+00
   1    8    7     5     3    9.9265E+00  1.9221E-01   9.7343E+00  0.000E+00  0.000E+00  0.000E+00  1.04992E+03  6.676E-01  1.497E+01  5.241E-02  1.223E+00
   1    8    6     5     4    9.7343E+00  1.3577E-01   9.5985E+00  0.000E+00  0.000E+00  0.000E+00  1.04691E+03  6.637E-01  1.482E+01  3.706E-02  1.221E+00
   1    9    6     6     1    8.6641E+01  3.3426E-01   8.6306E+01  0.000E+00  0.000E+00  0.000E+00  1.04530E+03  2.571E+00  1.200E+01  6.000E-02  1.857E+00
   1   10    7     6     2    8.6306E+01  3.3390E-01   8.5973E+01  0.000E+00  0.000E+00  0.000E+00  1.04075E+03  2.565E+00  1.200E+01  6.000E-02  1.855E+00
   1   11    7     6     3    8.5973E+01  3.3354E-01   8.5639E+01  0.000E+00  0.000E+00  0.000E+00  1.03620E+03  2.559E+00  1.200E+01  6.000E-02  1.853E+00
   1   12    7     6     4    8.5639E+01  3.3319E-01   8.5306E+01  0.000E+00  0.000E+00  0.000E+00  1.03164E+03  2.553E+00  1.200E+01  6.000E-02  1.851E+00
   1   13    7     6     5    8.5306E+01  2.9843E-02   8.5276E+01  0.000E+00  0.000E+00  0.000E+00  1.02846E+03  2.550E+00  1.200E+01  2.400E-02  4.145E-01
   1   14    9     7     1    1.5000E+02  1.3319E+00   1.4867E+02  0.000E+00  0.000E+00  0.000E+00  1.03987E+03  2.288E+00  5.529E+01  5.593E-01  7.938E-01
   1   13    8     7     2    1.4867E+02  1.8062E+00   1.4686E+02  0.000E+00  0.000E+00  0.000E+00  1.03478E+03  2.279E+00  5.526E+01  6.148E-01  9.793E-01
   1   13    7     7     3    1.4686E+02  1.3821E+00   1.4548E+02  0.000E+00  0.000E+00  0.000E+00  1.02969E+03  2.271E+00  5.522E+01  5.585E-01  8.249E-01
   1   13    6     8     1    2.3076E+02  1.0600E+00   2.2970E+02  0.000E+00  0.000E+00  0.000E+00  1.02518E+03  3.308E+00  4.796E+01  4.888E-01  7.230E-01
   1   13    5     8     2    2.2970E+02  2.2347E-01   2.2947E+02  0.000E+00  0.000E+00  0.000E+00  1.01893E+03  3.304E+00  4.791E+01  4.882E-01  1.526E-01
   1   13    4     8     3    2.2947E+02 -2.1038E+00   2.3158E+02  0.000E+00  0.000E+00  0.000E+00  1.01268E+03  3.309E+00  4.799E+01  4.890E+00 -1.434E-01
   1   13    3     8     4    2.3158E+02 -3.2877E+00   2.3486E+02  0.000E+00  0.000E+00  0.000E+00  1.00645E+03  3.324E+00  4.820E+01  4.911E+00 -2.231E-01
   1   13    2     8     5    2.3486E+02 -2.6436E+00   2.3751E+02  0.000E+00  0.000E+00  0.000E+00  1.00021E+03  3.340E+00  4.842E+01  4.935E+00 -1.786E-01
   1   13    1     8     6    2.3751E+02 -1.9963E+00   2.3950E+02  0.000E+00  0.000E+00  0.000E+00  9.95227E+02  3.352E+00  4.860E+01  2.972E+00 -2.239E-01



 UBDSV3 SAVING "           GW ET" ON UNIT  61 AT TIME STEP  5, STRESS PERIOD   7
 UBDSV3 SAVING "    UZF RECHARGE" ON UNIT  61 AT TIME STEP  5, STRESS PERIOD   7
 UBDSV3 SAVING " SURFACE LEAKAGE" ON UNIT  61 AT TIME STEP  5, STRESS PERIOD   7
 UBDSV3 SAVING "       HORT+DUNN" ON UNIT  61 AT TIME STEP  5, STRESS PERIOD   7
 UBDSV3 SAVING "  STORAGE CHANGE" ON UNIT  61 AT TIME STEP  5, STRESS PERIOD   7


UNSATURATED ZONE PACKAGE VOLUMETRIC BUDGET FOR  TIME STEP     5 STRESS PERIOD    7
  ------------------------------------------------------------------------------



     CUMULATIVE VOLUMES      L**3       RATES FOR THIS TIME STEP      L**3/T
     ------------------                 ------------------------

           IN:                                      IN:
           ---                                      ---
        INFILTRATION =    98440367.4734          INFILTRATION =          26.4922

          OUT:                                     OUT:
          ----                                     ----
              UZF ET =    78013415.2034                UZF ET =          26.6075
        UZF RECHARGE =       73224.0000          UZF RECHARGE =       0.0000E+00

            IN - OUT =    20353728.2700              IN - OUT =          -0.1153

          STORAGE:                                 STORAGE:
          --------                                 --------
      STORAGE CHANGE =    20354433.5970        STORAGE CHANGE =          -0.1153

 PERCENT DISCREPANCY IS DIFFERENCE BETWEEN IN-OUT MINUS CHANGE IN STORAGE
 DIVIDED BY THE AVERAGE OF IN AND OUT TIMES 100

 PERCENT DISCREPANCY =          -0.00     PERCENT DISCREPANCY =           0.00






 

            AG WELLS      PERIOD    7   STEP   5
 AG WELL      1   LAYER   1   ROW     6   COL     4   RATE    -3.71636    
 AG WELL      2   LAYER   1   ROW     6   COL     5   RATE    -3.69843    
 AG WELL      3   LAYER   1   ROW     7   COL     4   RATE    -3.70243    
 AG WELL      4   LAYER   1   ROW     7   COL     5   RATE    -3.67859    
 AG WELL      5   LAYER   1   ROW     8   COL     4   RATE    -3.70243    
 AG WELL      6   LAYER   1   ROW     8   COL     5   RATE    -3.58647    
 
 

        GW IRRIGATION     PERIOD    7   STEP   5
 AG WELL      1   ROW     6   COL     4   RATE     3.71636    
 AG WELL      2   ROW     6   COL     5   RATE     3.69843    
 AG WELL      3   ROW     7   COL     4   RATE     3.70243    
 AG WELL      4   ROW     7   COL     5   RATE     3.67859    
 AG WELL      5   ROW     8   COL     4   RATE     3.70243    
 AG WELL      6   ROW     8   COL     5   RATE     3.58647    
 
1
  VOLUMETRIC BUDGET FOR ENTIRE MODEL AT END OF TIME STEP    5, STRESS PERIOD   7
  ------------------------------------------------------------------------------

     CUMULATIVE VOLUMES      L**3       RATES FOR THIS TIME STEP      L**3/T
     ------------------                 ------------------------

           IN:                                      IN:
           ---                                      ---
               AG WELLS  =    38476568.0000                 AG WELLS  =          22.0847
      DIVERSION SEGMENTS =           0.0000        DIVERSION SEGMENTS =           0.0000
           GW IRRIGATION =           0.0000             GW IRRIGATION =           0.0000
           SW IRRIGATION =           0.0000             SW IRRIGATION =           0.0000
        SYSTEM LOSSES GW =           0.0000          SYSTEM LOSSES GW =           0.0000
        SYSTEM LOSSES SW =           0.0000          SYSTEM LOSSES SW =           0.0000

                TOTAL IN =    38476568.0000                  TOTAL IN =          22.0847

          OUT:                                     OUT:
          ----                                     ----
               AG WELLS  =           0.0000                 AG WELLS  =           0.0000
      DIVERSION SEGMENTS =           0.0000        DIVERSION SEGMENTS =           0.0000
           GW IRRIGATION =    38476568.0000             GW IRRIGATION =          22.0847
           SW IRRIGATION =           0.0000             SW IRRIGATION =           0.0000
        SYSTEM LOSSES GW =           0.0000          SYSTEM LOSSES GW =           0.0000
        SYSTEM LOSSES SW =           0.0000          SYSTEM LOSSES SW =           0.0000

               TOTAL OUT =    38476568.0000                 TOTAL OUT =          22.0847

                IN - OUT =           0.0000                  IN - OUT =           0.0000

     PERCENT DISCREPANCY =           0.00         PERCENT DISCREPANCY =           0.00



1
  VOLUMETRIC BUDGET FOR ENTIRE MODEL AT END OF TIME STEP    5, STRESS PERIOD   7
  ------------------------------------------------------------------------------

     CUMULATIVE VOLUMES      L**3       RATES FOR THIS TIME STEP      L**3/T
     ------------------                 ------------------------

           IN:                                      IN:
           ---                                      ---
             STORAGE     =    46365860.0000               STORAGE     =          22.3941
       CONSTANT HEAD     =           0.0000         CONSTANT HEAD     =           0.0000
     HEAD DEP BOUNDS     =     3903409.5000       HEAD DEP BOUNDS     =           0.2855
      STREAM LEAKAGE     =   172599504.0000        STREAM LEAKAGE     =          13.5281
        UZF RECHARGE     =       73223.9531          UZF RECHARGE     =           0.0000
               GW ET     =           0.0000                 GW ET     =           0.0000
     SURFACE LEAKAGE     =           0.0000       SURFACE LEAKAGE     =           0.0000
           AG WELLS      =           0.0000             AG WELLS      =           0.0000

                TOTAL IN =   222941984.0000                  TOTAL IN =          36.2077

          OUT:                                     OUT:
          ----                                     ----
             STORAGE     =    38492684.0000               STORAGE     =           2.0701
       CONSTANT HEAD     =           0.0000         CONSTANT HEAD     =           0.0000
     HEAD DEP BOUNDS     =     4016796.0000       HEAD DEP BOUNDS     =           0.3002
      STREAM LEAKAGE     =   139187472.0000        STREAM LEAKAGE     =          10.0314
        UZF RECHARGE     =           0.0000          UZF RECHARGE     =           0.0000
               GW ET     =     2771616.2500                 GW ET     =           1.7214
     SURFACE LEAKAGE     =           0.0000       SURFACE LEAKAGE     =           0.0000
           AG WELLS      =    38476568.0000             AG WELLS      =          22.0847

               TOTAL OUT =   222945152.0000                 TOTAL OUT =          36.2078

                IN - OUT =       -3168.0000                  IN - OUT =      -6.8665E-05

     PERCENT DISCREPANCY =          -0.00         PERCENT DISCREPANCY =          -0.00






         TIME SUMMARY AT END OF TIME STEP    5 IN STRESS PERIOD    7
                    SECONDS     MINUTES      HOURS       DAYS        YEARS
                    -----------------------------------------------------------
   TIME STEP LENGTH  87667.      1461.1      24.352      1.0147     2.77799E-03
 STRESS PERIOD TIME 4.38333E+05  7305.6      121.76      5.0733     1.38899E-02
         TOTAL TIME 1.36747E+07 2.27912E+05  3798.5      158.27     0.43333    
1
 
 SOLVING FOR HEAD 
                                                   Max.-Head-Change                         Max.-Flux-Residual
  Residual-Control   Outer-Iter.   Inner-Iter.     Column Row Layer    Maximum-Head-Change  Column Row Layer    Maximum-Flux-Residual          L2-NORM 
          0                 1           2             4    7     1      -0.5991849759E-01       4    7    1        -0.3136971642E+01      0.7157283685E+01
          0                 2           2             4    7     1       0.5828390411E-02       4    7    1         0.3136941945E+00      0.7156233699E+00
          0                 3           2             4    7     1      -0.3968922249E-03       4    7    1        -0.2195863120E-01      0.5008486409E-01
          0                 4           1             4    7     1       0.1579271124E-04       4    7    1         0.8981091444E-03      0.2047952744E-02

    ------------------------------------------------
       NWT REQUIRED            4 OUTER ITERATIONS 
       AND A TOTAL OF          7 INNER ITERATIONS.
    ------------------------------------------------

 NO OUTPUT CONTROL FOR STRESS PERIOD    7   TIME STEP    6
 
 SOLVING FOR HEAD 
                                                   Max.-Head-Change                         Max.-Flux-Residual
  Residual-Control   Outer-Iter.   Inner-Iter.     Column Row Layer    Maximum-Head-Change  Column Row Layer    Maximum-Flux-Residual          L2-NORM 
          0                 1           2             4    7     1      -0.5946152429E-01       4    7    1        -0.3113843776E+01      0.7055874966E+01
          0                 2           2             4    7     1       0.5783938153E-02       4    7    1         0.3113813209E+00      0.7055120661E+00
          0                 3           2             4    7     1      -0.3938652028E-03       4    7    1        -0.2179673081E-01      0.4937979622E-01
          0                 4           1             4    7     1       0.1567226313E-04       4    7    1         0.8914873981E-03      0.2019259431E-02

    ------------------------------------------------
       NWT REQUIRED            4 OUTER ITERATIONS 
       AND A TOTAL OF          7 INNER ITERATIONS.
    ------------------------------------------------

 NO OUTPUT CONTROL FOR STRESS PERIOD    7   TIME STEP    7
 
 SOLVING FOR HEAD 
                                                   Max.-Head-Change                         Max.-Flux-Residual
  Residual-Control   Outer-Iter.   Inner-Iter.     Column Row Layer    Maximum-Head-Change  Column Row Layer    Maximum-Flux-Residual          L2-NORM 
          0                 1           2             4    7     1      -0.5899379033E-01       4    7    1        -0.3090081751E+01      0.6960618901E+01
          0                 2           2             4    7     1       0.5738439378E-02       4    7    1         0.3090050452E+00      0.6960070332E+00
          0                 3           2             4    7     1      -0.3907669147E-03       4    7    1        -0.2163039212E-01      0.4871621752E-01
          0                 4           1             4    7     1       0.1554897897E-04       4    7    1         0.8846841320E-03      0.1992250306E-02

    ------------------------------------------------
       NWT REQUIRED            4 OUTER ITERATIONS 
       AND A TOTAL OF          7 INNER ITERATIONS.
    ------------------------------------------------

 NO OUTPUT CONTROL FOR STRESS PERIOD    7   TIME STEP    8
 
 SOLVING FOR HEAD 
                                                   Max.-Head-Change                         Max.-Flux-Residual
  Residual-Control   Outer-Iter.   Inner-Iter.     Column Row Layer    Maximum-Head-Change  Column Row Layer    Maximum-Flux-Residual          L2-NORM 
          0                 1           2             4    7     1      -0.5851641127E-01       4    7    1        -0.3065748200E+01      0.6870453171E+01
          0                 2           2             4    7     1       0.5692002583E-02       4    7    1         0.3065716297E+00      0.6870048682E+00
          0                 3           2             4    7     1      -0.3876047487E-03       4    7    1        -0.2146005351E-01      0.4808732873E-01
          0                 4           1             4    7     1       0.1542315372E-04       4    7    1         0.8777172675E-03      0.1966586643E-02

    ------------------------------------------------
       NWT REQUIRED            4 OUTER ITERATIONS 
       AND A TOTAL OF          7 INNER ITERATIONS.
    ------------------------------------------------

 NO OUTPUT CONTROL FOR STRESS PERIOD    7   TIME STEP    9
 
 SOLVING FOR HEAD 
                                                   Max.-Head-Change                         Max.-Flux-Residual
  Residual-Control   Outer-Iter.   Inner-Iter.     Column Row Layer    Maximum-Head-Change  Column Row Layer    Maximum-Flux-Residual          L2-NORM 
          0                 1           2             4    7     1      -0.5803097355E-01       4    7    1        -0.3040931028E+01      0.6784615681E+01
          0                 2           2             4    7     1       0.5644782069E-02       4    7    1         0.3040898636E+00      0.6784312016E+00
          0                 3           2             4    7     1      -0.3843892138E-03       4    7    1        -0.2128633029E-01      0.4748804767E-01
          0                 4           1             4    7     1       0.1529520459E-04       4    7    1         0.8706119900E-03      0.1942130611E-02

    ------------------------------------------------
       NWT REQUIRED            4 OUTER ITERATIONS 
       AND A TOTAL OF          7 INNER ITERATIONS.
    ------------------------------------------------

 OUTPUT CONTROL FOR STRESS PERIOD    7   TIME STEP   10
    PRINT BUDGET
    SAVE BUDGET
 UBDSV1 SAVING "         STORAGE" ON UNIT 102 AT TIME STEP 10, STRESS PERIOD   7
 UBDSV2 SAVING "   CONSTANT HEAD" ON UNIT 102 AT TIME STEP 10, STRESS PERIOD   7
 UBDSV1 SAVING "FLOW RIGHT FACE " ON UNIT 102 AT TIME STEP 10, STRESS PERIOD   7
 UBDSV1 SAVING "FLOW FRONT FACE " ON UNIT 102 AT TIME STEP 10, STRESS PERIOD   7

  HEAD DEP BOUNDS   PERIOD    7   STEP    10
 BOUNDARY      1   LAYER   1   ROW    13   COL     1   RATE   -0.300047    
 BOUNDARY      2   LAYER   1   ROW    14   COL     9   RATE    0.285490    



 STREAM LISTING     PERIOD      7   STEP       10

 LAYER ROW COL. STREAM  RCH.  FLOW INTO     FLOW TO   FLOW OUT OF   OVRLND.     DIRECT     STREAM       STREAM     STREAM     STREAM   STREAMBED  STREAMBED
                SEG.NO.  NO.  STRM. RCH.    AQUIFER    STRM. RCH.    RUNOFF     PRECIP       ET          HEAD       DEPTH      WIDTH   CONDCTNC.   GRADIENT

   1    1    1     1     1    8.3000E+01  4.4019E-01   8.2560E+01  0.000E+00  0.000E+00  0.000E+00  1.09478E+03  1.734E+00  2.066E+01  9.299E-02  1.578E+00
   1    2    2     1     2    8.2560E+01  6.8286E-01   8.1877E+01  0.000E+00  0.000E+00  0.000E+00  1.08979E+03  1.731E+00  2.062E+01  1.443E-01  1.577E+00
   1    3    3     1     3    8.1877E+01  5.8349E-01   8.1294E+01  0.000E+00  0.000E+00  0.000E+00  1.08415E+03  1.729E+00  2.057E+01  1.234E-01  1.576E+00
   1    3    4     1     4    8.1294E+01  5.3822E-01   8.0756E+01  0.000E+00  0.000E+00  0.000E+00  1.07913E+03  1.726E+00  2.052E+01  1.139E-01  1.575E+00
   1    4    5     2     1    7.8756E+01  4.2120E-01   7.8334E+01  0.000E+00  0.000E+00  0.000E+00  1.07433E+03  2.400E+00  1.200E+01  7.800E-02  1.800E+00
   1    5    6     2     2    7.8334E+01  3.2359E-01   7.8011E+01  0.000E+00  0.000E+00  0.000E+00  1.06890E+03  2.393E+00  1.200E+01  6.000E-02  1.798E+00
   1    6    6     2     3    7.8011E+01  3.2323E-01   7.7688E+01  0.000E+00  0.000E+00  0.000E+00  1.06418E+03  2.387E+00  1.200E+01  6.000E-02  1.796E+00
   1    7    6     2     4    7.7688E+01  3.2288E-01   7.7365E+01  0.000E+00  0.000E+00  0.000E+00  1.05946E+03  2.381E+00  1.200E+01  6.000E-02  1.794E+00
   1    8    6     2     5    7.7365E+01  3.2252E-01   7.7042E+01  0.000E+00  0.000E+00  0.000E+00  1.05473E+03  2.375E+00  1.200E+01  6.000E-02  1.792E+00
   1    3    5     3     1    2.0000E+00  2.8252E-01   1.7175E+00  0.000E+00  0.000E+00  0.000E+00  1.07555E+03  1.909E+00  9.636E+00  7.227E-02  1.955E+00
   1    3    6     3     2    1.7175E+00  2.4905E-01   1.4684E+00  0.000E+00  0.000E+00  0.000E+00  1.07264E+03  1.727E+00  8.909E+00  6.682E-02  1.864E+00
   1    3    7     3     3    1.4684E+00  1.9718E-01   1.2712E+00  0.000E+00  0.000E+00  0.000E+00  1.06987E+03  1.555E+00  8.218E+00  5.547E-02  1.777E+00
   1    4    8     3     4    1.2712E+00  2.2567E-01   1.0456E+00  0.000E+00  0.000E+00  0.000E+00  1.06682E+03  1.364E+00  7.455E+00  6.709E-02  1.682E+00
   1    5    8     3     5    1.0456E+00  1.5790E-01   8.8768E-01  0.000E+00  0.000E+00  0.000E+00  1.06362E+03  1.164E+00  6.655E+00  4.991E-02  1.582E+00
   1    6    8     3     6    8.8768E-01  5.5980E-02   8.3170E-01  0.000E+00  0.000E+00  0.000E+00  1.06158E+03  1.036E+00  6.145E+00  1.844E-02  1.518E+00
   1    5   10     4     1    1.0000E+01  9.0919E-02   9.9091E+00  0.000E+00  0.000E+00  0.000E+00  1.07836E+03  6.368E-01  1.000E+01  2.500E-02  1.212E+00
   1    5    9     4     2    9.9091E+00  1.8158E-01   9.7275E+00  0.000E+00  0.000E+00  0.000E+00  1.07154E+03  6.315E-01  1.000E+01  5.000E-02  1.211E+00
   1    6    8     4     3    9.7275E+00  1.2689E-01   9.6006E+00  0.000E+00  0.000E+00  0.000E+00  1.06381E+03  6.256E-01  1.000E+01  3.500E-02  1.209E+00
   1    6    8     5     1    1.0432E+01  2.2686E-01   1.0205E+01  0.000E+00  0.000E+00  0.000E+00  1.05868E+03  6.790E-01  1.542E+01  6.166E-02  1.226E+00
   1    7    7     5     2    1.0205E+01  2.7894E-01   9.9265E+00  0.000E+00  0.000E+00  0.000E+00  1.05417E+03  6.732E-01  1.519E+01  7.594E-02  1.224E+00
   1    8    7     5     3    9.9265E+00  1.9221E-01   9.7343E+00  0.000E+00  0.000E+00  0.000E+00  1.04992E+03  6.676E-01  1.497E+01  5.241E-02  1.223E+00
   1    8    6     5     4    9.7343E+00  1.3577E-01   9.5985E+00  0.000E+00  0.000E+00  0.000E+00  1.04691E+03  6.637E-01  1.482E+01  3.706E-02  1.221E+00
   1    9    6     6     1    8.6641E+01  3.3426E-01   8.6306E+01  0.000E+00  0.000E+00  0.000E+00  1.04530E+03  2.571E+00  1.200E+01  6.000E-02  1.857E+00
   1   10    7     6     2    8.6306E+01  3.3390E-01   8.5973E+01  0.000E+00  0.000E+00  0.000E+00  1.04075E+03  2.565E+00  1.200E+01  6.000E-02  1.855E+00
   1   11    7     6     3    8.5973E+01  3.3354E-01   8.5639E+01  0.000E+00  0.000E+00  0.000E+00  1.03620E+03  2.559E+00  1.200E+01  6.000E-02  1.853E+00
   1   12    7     6     4    8.5639E+01  3.3319E-01   8.5306E+01  0.000E+00  0.000E+00  0.000E+00  1.03164E+03  2.553E+00  1.200E+01  6.000E-02  1.851E+00
   1   13    7     6     5    8.5306E+01  2.9752E-02   8.5276E+01  0.000E+00  0.000E+00  0.000E+00  1.02846E+03  2.550E+00  1.200E+01  2.400E-02  4.132E-01
   1   14    9     7     1    1.5000E+02  1.3319E+00   1.4867E+02  0.000E+00  0.000E+00  0.000E+00  1.03987E+03  2.288E+00  5.529E+01  5.593E-01  7.938E-01
   1   13    8     7     2    1.4867E+02  1.8054E+00   1.4686E+02  0.000E+00  0.000E+00  0.000E+00  1.03478E+03  2.279E+00  5.526E+01  6.148E-01  9.789E-01
   1   13    7     7     3    1.4686E+02  1.3800E+00   1.4548E+02  0.000E+00  0.000E+00  0.000E+00  1.02969E+03  2.271E+00  5.522E+01  5.585E-01  8.237E-01
   1   13    6     8     1    2.3076E+02  1.0580E+00   2.2970E+02  0.000E+00  0.000E+00  0.000E+00  1.02518E+03  3.308E+00  4.796E+01  4.888E-01  7.215E-01
   1   13    5     8     2    2.2970E+02  2.2271E-01   2.2948E+02  0.000E+00  0.000E+00  0.000E+00  1.01893E+03  3.304E+00  4.791E+01  4.882E-01  1.520E-01
   1   13    4     8     3    2.2948E+02 -2.0154E+00   2.3149E+02  0.000E+00  0.000E+00  0.000E+00  1.01268E+03  3.309E+00  4.798E+01  4.890E+00 -1.374E-01
   1   13    3     8     4    2.3149E+02 -3.1950E+00   2.3469E+02  0.000E+00  0.000E+00  0.000E+00  1.00645E+03  3.323E+00  4.819E+01  4.910E+00 -2.169E-01
   1   13    2     8     5    2.3469E+02 -2.5916E+00   2.3728E+02  0.000E+00  0.000E+00  0.000E+00  1.00021E+03  3.339E+00  4.841E+01  4.933E+00 -1.751E-01
   1   13    1     8     6    2.3728E+02 -1.9911E+00   2.3927E+02  0.000E+00  0.000E+00  0.000E+00  9.95226E+02  3.351E+00  4.858E+01  2.971E+00 -2.234E-01



 UBDSV3 SAVING "           GW ET" ON UNIT  61 AT TIME STEP 10, STRESS PERIOD   7
 UBDSV3 SAVING "    UZF RECHARGE" ON UNIT  61 AT TIME STEP 10, STRESS PERIOD   7
 UBDSV3 SAVING " SURFACE LEAKAGE" ON UNIT  61 AT TIME STEP 10, STRESS PERIOD   7
 UBDSV3 SAVING "       HORT+DUNN" ON UNIT  61 AT TIME STEP 10, STRESS PERIOD   7
 UBDSV3 SAVING "  STORAGE CHANGE" ON UNIT  61 AT TIME STEP 10, STRESS PERIOD   7


UNSATURATED ZONE PACKAGE VOLUMETRIC BUDGET FOR  TIME STEP    10 STRESS PERIOD    7
  ------------------------------------------------------------------------------



     CUMULATIVE VOLUMES      L**3       RATES FOR THIS TIME STEP      L**3/T
     ------------------                 ------------------------

           IN:                                      IN:
           ---                                      ---
        INFILTRATION =   110059192.2263          INFILTRATION =          26.5154

          OUT:                                     OUT:
          ----                                     ----
              UZF ET =    89676369.3000                UZF ET =          26.6075
        UZF RECHARGE =       73224.0000          UZF RECHARGE =       0.0000E+00

            IN - OUT =    20309598.9263              IN - OUT =      -9.2062E-02

          STORAGE:                                 STORAGE:
          --------                                 --------
      STORAGE CHANGE =    20310304.0687        STORAGE CHANGE =      -9.2063E-02

 PERCENT DISCREPANCY IS DIFFERENCE BETWEEN IN-OUT MINUS CHANGE IN STORAGE
 DIVIDED BY THE AVERAGE OF IN AND OUT TIMES 100

 PERCENT DISCREPANCY =          -0.00     PERCENT DISCREPANCY =           0.00






 

            AG WELLS      PERIOD    7   STEP  10
 AG WELL      1   LAYER   1   ROW     6   COL     4   RATE    -3.71691    
 AG WELL      2   LAYER   1   ROW     6   COL     5   RATE    -3.70035    
 AG WELL      3   LAYER   1   ROW     7   COL     4   RATE    -3.70487    
 AG WELL      4   LAYER   1   ROW     7   COL     5   RATE    -3.68241    
 AG WELL      5   LAYER   1   ROW     8   COL     4   RATE    -3.70487    
 AG WELL      6   LAYER   1   ROW     8   COL     5   RATE    -3.59853    
 
 

        GW IRRIGATION     PERIOD    7   STEP  10
 AG WELL      1   ROW     6   COL     4   RATE     3.71691    
 AG WELL      2   ROW     6   COL     5   RATE     3.70035    
 AG WELL      3   ROW     7   COL     4   RATE     3.70487    
 AG WELL      4   ROW     7   COL     5   RATE     3.68241    
 AG WELL      5   ROW     8   COL     4   RATE     3.70487    
 AG WELL      6   ROW     8   COL     5   RATE     3.59853    
 
1
  VOLUMETRIC BUDGET FOR ENTIRE MODEL AT END OF TIME STEP   10, STRESS PERIOD   7
  ------------------------------------------------------------------------------

     CUMULATIVE VOLUMES      L**3       RATES FOR THIS TIME STEP      L**3/T
     ------------------                 ------------------------

           IN:                                      IN:
           ---                                      ---
               AG WELLS  =    48163444.0000                 AG WELLS  =          22.1079
      DIVERSION SEGMENTS =           0.0000        DIVERSION SEGMENTS =           0.0000
           GW IRRIGATION =           0.0000             GW IRRIGATION =           0.0000
           SW IRRIGATION =           0.0000             SW IRRIGATION =           0.0000
        SYSTEM LOSSES GW =           0.0000          SYSTEM LOSSES GW =           0.0000
        SYSTEM LOSSES SW =           0.0000          SYSTEM LOSSES SW =           0.0000

                TOTAL IN =    48163444.0000                  TOTAL IN =          22.1079

          OUT:                                     OUT:
          ----                                     ----
               AG WELLS  =           0.0000                 AG WELLS  =           0.0000
      DIVERSION SEGMENTS =           0.0000        DIVERSION SEGMENTS =           0.0000
           GW IRRIGATION =    48163444.0000             GW IRRIGATION =          22.1079
           SW IRRIGATION =           0.0000             SW IRRIGATION =           0.0000
        SYSTEM LOSSES GW =           0.0000          SYSTEM LOSSES GW =           0.0000
        SYSTEM LOSSES SW =           0.0000          SYSTEM LOSSES SW =           0.0000

               TOTAL OUT =    48163444.0000                 TOTAL OUT =          22.1079

                IN - OUT =           0.0000                  IN - OUT =           0.0000

     PERCENT DISCREPANCY =           0.00         PERCENT DISCREPANCY =           0.00



1
  VOLUMETRIC BUDGET FOR ENTIRE MODEL AT END OF TIME STEP   10, STRESS PERIOD   7
  ------------------------------------------------------------------------------

     CUMULATIVE VOLUMES      L**3       RATES FOR THIS TIME STEP      L**3/T
     ------------------                 ------------------------

           IN:                                      IN:
           ---                                      ---
             STORAGE     =    56004196.0000               STORAGE     =          21.7947
       CONSTANT HEAD     =           0.0000         CONSTANT HEAD     =           0.0000
     HEAD DEP BOUNDS     =     4028549.5000       HEAD DEP BOUNDS     =           0.2855
      STREAM LEAKAGE     =   178527760.0000        STREAM LEAKAGE     =          13.5223
        UZF RECHARGE     =       73223.9531          UZF RECHARGE     =           0.0000
               GW ET     =           0.0000                 GW ET     =           0.0000
     SURFACE LEAKAGE     =           0.0000       SURFACE LEAKAGE     =           0.0000
           AG WELLS      =           0.0000             AG WELLS      =           0.0000

                TOTAL IN =   238633728.0000                  TOTAL IN =          35.6025

          OUT:                                     OUT:
          ----                                     ----
             STORAGE     =    39367704.0000               STORAGE     =           1.9586
       CONSTANT HEAD     =           0.0000         CONSTANT HEAD     =           0.0000
     HEAD DEP BOUNDS     =     4148334.0000       HEAD DEP BOUNDS     =           0.3000
      STREAM LEAKAGE     =   143514720.0000        STREAM LEAKAGE     =           9.7932
        UZF RECHARGE     =           0.0000          UZF RECHARGE     =           0.0000
               GW ET     =     3442703.5000                 GW ET     =           1.4428
     SURFACE LEAKAGE     =           0.0000       SURFACE LEAKAGE     =           0.0000
           AG WELLS      =    48163444.0000             AG WELLS      =          22.1079

               TOTAL OUT =   238636896.0000                 TOTAL OUT =          35.6025

                IN - OUT =       -3168.0000                  IN - OUT =      -6.4850E-05

     PERCENT DISCREPANCY =          -0.00         PERCENT DISCREPANCY =          -0.00






         TIME SUMMARY AT END OF TIME STEP   10 IN STRESS PERIOD    7
                    SECONDS     MINUTES      HOURS       DAYS        YEARS
                    -----------------------------------------------------------
   TIME STEP LENGTH  87667.      1461.1      24.352      1.0147     2.77799E-03
 STRESS PERIOD TIME 8.76667E+05  14611.      243.52      10.147     2.77799E-02
         TOTAL TIME 1.41131E+07 2.35218E+05  3920.3      163.35     0.44722    
1
 
 SOLVING FOR HEAD 
                                                   Max.-Head-Change                         Max.-Flux-Residual
  Residual-Control   Outer-Iter.   Inner-Iter.     Column Row Layer    Maximum-Head-Change  Column Row Layer    Maximum-Flux-Residual          L2-NORM 
          0                 1           2             4    7     1      -0.5753841662E-01       4    7    1        -0.3015682193E+01      0.6702555386E+01
          0                 2           2             4    7     1       0.5596869206E-02       4    7    1         0.3015649420E+00      0.6702323382E+00
          0                 3           2             4    7     1      -0.3811265302E-03       4    7    1        -0.2110958607E-01      0.4691480187E-01
          0                 4           1             4    7     1       0.1516537911E-04       4    7    1         0.8633831274E-03      0.1918715649E-02

    ------------------------------------------------
       NWT REQUIRED            4 OUTER ITERATIONS 
       AND A TOTAL OF          7 INNER ITERATIONS.
    ------------------------------------------------

 NO OUTPUT CONTROL FOR STRESS PERIOD    7   TIME STEP   11
 
 SOLVING FOR HEAD 
                                                   Max.-Head-Change                         Max.-Flux-Residual
  Residual-Control   Outer-Iter.   Inner-Iter.     Column Row Layer    Maximum-Head-Change  Column Row Layer    Maximum-Flux-Residual          L2-NORM 
          0                 1           2             4    7     1      -0.5704015164E-01       4    7    1        -0.2990080701E+01      0.6623831685E+01
          0                 2           2             4    7     1       0.5548401242E-02       4    7    1         0.2990047643E+00      0.6623652264E+00
          0                 3           2             4    7     1      -0.3778260457E-03       4    7    1        -0.2093037383E-01      0.4636453090E-01
          0                 4           1             4    7     1       0.1503405029E-04       4    7    1         0.8560533504E-03      0.1896243003E-02

    ------------------------------------------------
       NWT REQUIRED            4 OUTER ITERATIONS 
       AND A TOTAL OF          7 INNER ITERATIONS.
    ------------------------------------------------

 NO OUTPUT CONTROL FOR STRESS PERIOD    7   TIME STEP   12
 
 SOLVING FOR HEAD 
                                                   Max.-Head-Change                         Max.-Flux-Residual
  Residual-Control   Outer-Iter.   Inner-Iter.     Column Row Layer    Maximum-Head-Change  Column Row Layer    Maximum-Flux-Residual          L2-NORM 
          0                 1           2             4    7     1      -0.5653693882E-01       4    7    1        -0.2964169191E+01      0.6548131040E+01
          0                 2           2             4    7     1       0.5499452117E-02       4    7    1         0.2964135934E+00      0.6547986057E+00
          0                 3           2             4    7     1      -0.3744927938E-03       4    7    1        -0.2074899197E-01      0.4583515382E-01
          0                 4           1             4    7     1       0.1490141662E-04       4    7    1         0.8486348136E-03      0.1874639855E-02

    ------------------------------------------------
       NWT REQUIRED            4 OUTER ITERATIONS 
       AND A TOTAL OF          7 INNER ITERATIONS.
    ------------------------------------------------

 NO OUTPUT CONTROL FOR STRESS PERIOD    7   TIME STEP   13
 
 SOLVING FOR HEAD 
                                                   Max.-Head-Change                         Max.-Flux-Residual
  Residual-Control   Outer-Iter.   Inner-Iter.     Column Row Layer    Maximum-Head-Change  Column Row Layer    Maximum-Flux-Residual          L2-NORM 
          0                 1           2             4    7     1      -0.5602976700E-01       4    7    1        -0.2938002345E+01      0.6475192678E+01
          0                 2           2             4    7     1       0.5450118006E-02       4    7    1         0.2937968972E+00      0.6475074066E+00
          0                 3           2             4    7     1      -0.3711333249E-03       4    7    1        -0.2056582326E-01      0.4532497489E-01
          0                 4           1             4    7     1       0.1476774035E-04       4    7    1         0.8411432100E-03      0.1853754977E-02

    ------------------------------------------------
       NWT REQUIRED            4 OUTER ITERATIONS 
       AND A TOTAL OF          7 INNER ITERATIONS.
    ------------------------------------------------

 NO OUTPUT CONTROL FOR STRESS PERIOD    7   TIME STEP   14
 
 SOLVING FOR HEAD 
                                                   Max.-Head-Change                         Max.-Flux-Residual
  Residual-Control   Outer-Iter.   Inner-Iter.     Column Row Layer    Maximum-Head-Change  Column Row Layer    Maximum-Flux-Residual          L2-NORM 
          0                 1           2             4    7     1      -0.5551953578E-01       4    7    1        -0.2911631196E+01      0.6404786923E+01
          0                 2           2             4    7     1       0.5400486401E-02       4    7    1         0.2911597778E+00      0.6404688185E+00
          0                 3           2             4    7     1      -0.3677535969E-03       4    7    1        -0.2038122487E-01      0.4483246279E-01
          0                 4           1             4    7     1       0.1463325819E-04       4    7    1         0.8335931266E-03      0.1833626096E-02

    ------------------------------------------------
       NWT REQUIRED            4 OUTER ITERATIONS 
       AND A TOTAL OF          7 INNER ITERATIONS.
    ------------------------------------------------

 OUTPUT CONTROL FOR STRESS PERIOD    7   TIME STEP   15
    PRINT BUDGET
    SAVE BUDGET
 UBDSV1 SAVING "         STORAGE" ON UNIT 102 AT TIME STEP 15, STRESS PERIOD   7
 UBDSV2 SAVING "   CONSTANT HEAD" ON UNIT 102 AT TIME STEP 15, STRESS PERIOD   7
 UBDSV1 SAVING "FLOW RIGHT FACE " ON UNIT 102 AT TIME STEP 15, STRESS PERIOD   7
 UBDSV1 SAVING "FLOW FRONT FACE " ON UNIT 102 AT TIME STEP 15, STRESS PERIOD   7

  HEAD DEP BOUNDS   PERIOD    7   STEP    15
 BOUNDARY      1   LAYER   1   ROW    13   COL     1   RATE   -0.299956    
 BOUNDARY      2   LAYER   1   ROW    14   COL     9   RATE    0.285489    



 STREAM LISTING     PERIOD      7   STEP       15

 LAYER ROW COL. STREAM  RCH.  FLOW INTO     FLOW TO   FLOW OUT OF   OVRLND.     DIRECT     STREAM       STREAM     STREAM     STREAM   STREAMBED  STREAMBED
                SEG.NO.  NO.  STRM. RCH.    AQUIFER    STRM. RCH.    RUNOFF     PRECIP       ET          HEAD       DEPTH      WIDTH   CONDCTNC.   GRADIENT

   1    1    1     1     1    8.3000E+01  4.4019E-01   8.2560E+01  0.000E+00  0.000E+00  0.000E+00  1.09478E+03  1.734E+00  2.066E+01  9.299E-02  1.578E+00
   1    2    2     1     2    8.2560E+01  6.8286E-01   8.1877E+01  0.000E+00  0.000E+00  0.000E+00  1.08979E+03  1.731E+00  2.062E+01  1.443E-01  1.577E+00
   1    3    3     1     3    8.1877E+01  5.8349E-01   8.1294E+01  0.000E+00  0.000E+00  0.000E+00  1.08415E+03  1.729E+00  2.057E+01  1.234E-01  1.576E+00
   1    3    4     1     4    8.1294E+01  5.3822E-01   8.0756E+01  0.000E+00  0.000E+00  0.000E+00  1.07913E+03  1.726E+00  2.052E+01  1.139E-01  1.575E+00
   1    4    5     2     1    7.8756E+01  4.2120E-01   7.8334E+01  0.000E+00  0.000E+00  0.000E+00  1.07433E+03  2.400E+00  1.200E+01  7.800E-02  1.800E+00
   1    5    6     2     2    7.8334E+01  3.2359E-01   7.8011E+01  0.000E+00  0.000E+00  0.000E+00  1.06890E+03  2.393E+00  1.200E+01  6.000E-02  1.798E+00
   1    6    6     2     3    7.8011E+01  3.2323E-01   7.7688E+01  0.000E+00  0.000E+00  0.000E+00  1.06418E+03  2.387E+00  1.200E+01  6.000E-02  1.796E+00
   1    7    6     2     4    7.7688E+01  3.2288E-01   7.7365E+01  0.000E+00  0.000E+00  0.000E+00  1.05946E+03  2.381E+00  1.200E+01  6.000E-02  1.794E+00
   1    8    6     2     5    7.7365E+01  3.2252E-01   7.7042E+01  0.000E+00  0.000E+00  0.000E+00  1.05473E+03  2.375E+00  1.200E+01  6.000E-02  1.792E+00
   1    3    5     3     1    2.0000E+00  2.8252E-01   1.7175E+00  0.000E+00  0.000E+00  0.000E+00  1.07555E+03  1.909E+00  9.636E+00  7.227E-02  1.955E+00
   1    3    6     3     2    1.7175E+00  2.4905E-01   1.4684E+00  0.000E+00  0.000E+00  0.000E+00  1.07264E+03  1.727E+00  8.909E+00  6.682E-02  1.864E+00
   1    3    7     3     3    1.4684E+00  1.9718E-01   1.2712E+00  0.000E+00  0.000E+00  0.000E+00  1.06987E+03  1.555E+00  8.218E+00  5.547E-02  1.777E+00
   1    4    8     3     4    1.2712E+00  2.2567E-01   1.0456E+00  0.000E+00  0.000E+00  0.000E+00  1.06682E+03  1.364E+00  7.455E+00  6.709E-02  1.682E+00
   1    5    8     3     5    1.0456E+00  1.5790E-01   8.8768E-01  0.000E+00  0.000E+00  0.000E+00  1.06362E+03  1.164E+00  6.655E+00  4.991E-02  1.582E+00
   1    6    8     3     6    8.8768E-01  5.5980E-02   8.3170E-01  0.000E+00  0.000E+00  0.000E+00  1.06158E+03  1.036E+00  6.145E+00  1.844E-02  1.518E+00
   1    5   10     4     1    1.0000E+01  9.0919E-02   9.9091E+00  0.000E+00  0.000E+00  0.000E+00  1.07836E+03  6.368E-01  1.000E+01  2.500E-02  1.212E+00
   1    5    9     4     2    9.9091E+00  1.8158E-01   9.7275E+00  0.000E+00  0.000E+00  0.000E+00  1.07154E+03  6.315E-01  1.000E+01  5.000E-02  1.211E+00
   1    6    8     4     3    9.7275E+00  1.2689E-01   9.6006E+00  0.000E+00  0.000E+00  0.000E+00  1.06381E+03  6.256E-01  1.000E+01  3.500E-02  1.209E+00
   1    6    8     5     1    1.0432E+01  2.2686E-01   1.0205E+01  0.000E+00  0.000E+00  0.000E+00  1.05868E+03  6.790E-01  1.542E+01  6.166E-02  1.226E+00
   1    7    7     5     2    1.0205E+01  2.7894E-01   9.9265E+00  0.000E+00  0.000E+00  0.000E+00  1.05417E+03  6.732E-01  1.519E+01  7.594E-02  1.224E+00
   1    8    7     5     3    9.9265E+00  1.9221E-01   9.7343E+00  0.000E+00  0.000E+00  0.000E+00  1.04992E+03  6.676E-01  1.497E+01  5.241E-02  1.223E+00
   1    8    6     5     4    9.7343E+00  1.3577E-01   9.5985E+00  0.000E+00  0.000E+00  0.000E+00  1.04691E+03  6.637E-01  1.482E+01  3.706E-02  1.221E+00
   1    9    6     6     1    8.6641E+01  3.3426E-01   8.6306E+01  0.000E+00  0.000E+00  0.000E+00  1.04530E+03  2.571E+00  1.200E+01  6.000E-02  1.857E+00
   1   10    7     6     2    8.6306E+01  3.3390E-01   8.5973E+01  0.000E+00  0.000E+00  0.000E+00  1.04075E+03  2.565E+00  1.200E+01  6.000E-02  1.855E+00
   1   11    7     6     3    8.5973E+01  3.3354E-01   8.5639E+01  0.000E+00  0.000E+00  0.000E+00  1.03620E+03  2.559E+00  1.200E+01  6.000E-02  1.853E+00
   1   12    7     6     4    8.5639E+01  3.3319E-01   8.5306E+01  0.000E+00  0.000E+00  0.000E+00  1.03164E+03  2.553E+00  1.200E+01  6.000E-02  1.851E+00
   1   13    7     6     5    8.5306E+01  2.9666E-02   8.5276E+01  0.000E+00  0.000E+00  0.000E+00  1.02846E+03  2.550E+00  1.200E+01  2.400E-02  4.120E-01
   1   14    9     7     1    1.5000E+02  1.3319E+00   1.4867E+02  0.000E+00  0.000E+00  0.000E+00  1.03987E+03  2.288E+00  5.529E+01  5.593E-01  7.938E-01
   1   13    8     7     2    1.4867E+02  1.8047E+00   1.4686E+02  0.000E+00  0.000E+00  0.000E+00  1.03478E+03  2.279E+00  5.526E+01  6.148E-01  9.785E-01
   1   13    7     7     3    1.4686E+02  1.3780E+00   1.4549E+02  0.000E+00  0.000E+00  0.000E+00  1.02969E+03  2.271E+00  5.522E+01  5.585E-01  8.225E-01
   1   13    6     8     1    2.3076E+02  1.0561E+00   2.2971E+02  0.000E+00  0.000E+00  0.000E+00  1.02518E+03  3.308E+00  4.796E+01  4.888E-01  7.202E-01
   1   13    5     8     2    2.2971E+02  2.2213E-01   2.2948E+02  0.000E+00  0.000E+00  0.000E+00  1.01893E+03  3.304E+00  4.791E+01  4.883E-01  1.517E-01
   1   13    4     8     3    2.2948E+02 -1.9857E+00   2.3147E+02  0.000E+00  0.000E+00  0.000E+00  1.01268E+03  3.309E+00  4.798E+01  4.890E+00 -1.354E-01
   1   13    3     8     4    2.3147E+02 -3.1619E+00   2.3463E+02  0.000E+00  0.000E+00  0.000E+00  1.00645E+03  3.323E+00  4.818E+01  4.910E+00 -2.147E-01
   1   13    2     8     5    2.3463E+02 -2.5564E+00   2.3719E+02  0.000E+00  0.000E+00  0.000E+00  1.00021E+03  3.338E+00  4.840E+01  4.932E+00 -1.728E-01
   1   13    1     8     6    2.3719E+02 -1.9852E+00   2.3917E+02  0.000E+00  0.000E+00  0.000E+00  9.95225E+02  3.350E+00  4.858E+01  2.970E+00 -2.228E-01



 UBDSV3 SAVING "           GW ET" ON UNIT  61 AT TIME STEP 15, STRESS PERIOD   7
 UBDSV3 SAVING "    UZF RECHARGE" ON UNIT  61 AT TIME STEP 15, STRESS PERIOD   7
 UBDSV3 SAVING " SURFACE LEAKAGE" ON UNIT  61 AT TIME STEP 15, STRESS PERIOD   7
 UBDSV3 SAVING "       HORT+DUNN" ON UNIT  61 AT TIME STEP 15, STRESS PERIOD   7
 UBDSV3 SAVING "  STORAGE CHANGE" ON UNIT  61 AT TIME STEP 15, STRESS PERIOD   7


UNSATURATED ZONE PACKAGE VOLUMETRIC BUDGET FOR  TIME STEP    15 STRESS PERIOD    7
  ------------------------------------------------------------------------------



     CUMULATIVE VOLUMES      L**3       RATES FOR THIS TIME STEP      L**3/T
     ------------------                 ------------------------

           IN:                                      IN:
           ---                                      ---
        INFILTRATION =   121686332.8230          INFILTRATION =          26.5320

          OUT:                                     OUT:
          ----                                     ----
              UZF ET =   101339323.3967                UZF ET =          26.6075
        UZF RECHARGE =       73224.0000          UZF RECHARGE =       0.0000E+00

            IN - OUT =    20273785.4263              IN - OUT =      -7.5476E-02

          STORAGE:                                 STORAGE:
          --------                                 --------
      STORAGE CHANGE =    20274490.5010        STORAGE CHANGE =      -7.5477E-02

 PERCENT DISCREPANCY IS DIFFERENCE BETWEEN IN-OUT MINUS CHANGE IN STORAGE
 DIVIDED BY THE AVERAGE OF IN AND OUT TIMES 100

 PERCENT DISCREPANCY =          -0.00     PERCENT DISCREPANCY =           0.00






 

            AG WELLS      PERIOD    7   STEP  15
 AG WELL      1   LAYER   1   ROW     6   COL     4   RATE    -3.71741    
 AG WELL      2   LAYER   1   ROW     6   COL     5   RATE    -3.70193    
 AG WELL      3   LAYER   1   ROW     7   COL     4   RATE    -3.70683    
 AG WELL      4   LAYER   1   ROW     7   COL     5   RATE    -3.68534    
 AG WELL      5   LAYER   1   ROW     8   COL     4   RATE    -3.70683    
 AG WELL      6   LAYER   1   ROW     8   COL     5   RATE    -3.60619    
 
 

        GW IRRIGATION     PERIOD    7   STEP  15
 AG WELL      1   ROW     6   COL     4   RATE     3.71741    
 AG WELL      2   ROW     6   COL     5   RATE     3.70193    
 AG WELL      3   ROW     7   COL     4   RATE     3.70683    
 AG WELL      4   ROW     7   COL     5   RATE     3.68534    
 AG WELL      5   ROW     8   COL     4   RATE     3.70683    
 AG WELL      6   ROW     8   COL     5   RATE     3.60619    
 
1
  VOLUMETRIC BUDGET FOR ENTIRE MODEL AT END OF TIME STEP   15, STRESS PERIOD   7
  ------------------------------------------------------------------------------

     CUMULATIVE VOLUMES      L**3       RATES FOR THIS TIME STEP      L**3/T
     ------------------                 ------------------------

           IN:                                      IN:
           ---                                      ---
               AG WELLS  =    57858632.0000                 AG WELLS  =          22.1245
      DIVERSION SEGMENTS =           0.0000        DIVERSION SEGMENTS =           0.0000
           GW IRRIGATION =           0.0000             GW IRRIGATION =           0.0000
           SW IRRIGATION =           0.0000             SW IRRIGATION =           0.0000
        SYSTEM LOSSES GW =           0.0000          SYSTEM LOSSES GW =           0.0000
        SYSTEM LOSSES SW =           0.0000          SYSTEM LOSSES SW =           0.0000

                TOTAL IN =    57858632.0000                  TOTAL IN =          22.1245

          OUT:                                     OUT:
          ----                                     ----
               AG WELLS  =           0.0000                 AG WELLS  =           0.0000
      DIVERSION SEGMENTS =           0.0000        DIVERSION SEGMENTS =           0.0000
           GW IRRIGATION =    57858632.0000             GW IRRIGATION =          22.1245
           SW IRRIGATION =           0.0000             SW IRRIGATION =           0.0000
        SYSTEM LOSSES GW =           0.0000          SYSTEM LOSSES GW =           0.0000
        SYSTEM LOSSES SW =           0.0000          SYSTEM LOSSES SW =           0.0000

               TOTAL OUT =    57858632.0000                 TOTAL OUT =          22.1245

                IN - OUT =           0.0000                  IN - OUT =           0.0000

     PERCENT DISCREPANCY =           0.00         PERCENT DISCREPANCY =           0.00



1
  VOLUMETRIC BUDGET FOR ENTIRE MODEL AT END OF TIME STEP   15, STRESS PERIOD   7
  ------------------------------------------------------------------------------

     CUMULATIVE VOLUMES      L**3       RATES FOR THIS TIME STEP      L**3/T
     ------------------                 ------------------------

           IN:                                      IN:
           ---                                      ---
             STORAGE     =    65485592.0000               STORAGE     =          21.5458
       CONSTANT HEAD     =           0.0000         CONSTANT HEAD     =           0.0000
     HEAD DEP BOUNDS     =     4153689.5000       HEAD DEP BOUNDS     =           0.2855
      STREAM LEAKAGE     =   184453600.0000        STREAM LEAKAGE     =          13.5169
        UZF RECHARGE     =       73223.9531          UZF RECHARGE     =           0.0000
               GW ET     =           0.0000                 GW ET     =           0.0000
     SURFACE LEAKAGE     =           0.0000       SURFACE LEAKAGE     =           0.0000
           AG WELLS      =           0.0000             AG WELLS      =           0.0000

                TOTAL IN =   254166096.0000                  TOTAL IN =          35.3482

          OUT:                                     OUT:
          ----                                     ----
             STORAGE     =    40207324.0000               STORAGE     =           1.8881
       CONSTANT HEAD     =           0.0000         CONSTANT HEAD     =           0.0000
     HEAD DEP BOUNDS     =     4279829.5000       HEAD DEP BOUNDS     =           0.3000
      STREAM LEAKAGE     =   147777264.0000        STREAM LEAKAGE     =           9.6892
        UZF RECHARGE     =           0.0000          UZF RECHARGE     =           0.0000
               GW ET     =     4046274.2500                 GW ET     =           1.3464
     SURFACE LEAKAGE     =           0.0000       SURFACE LEAKAGE     =           0.0000
           AG WELLS      =    57858632.0000             AG WELLS      =          22.1245

               TOTAL OUT =   254169312.0000                 TOTAL OUT =          35.3482

                IN - OUT =       -3216.0000                  IN - OUT =      -6.4850E-05

     PERCENT DISCREPANCY =          -0.00         PERCENT DISCREPANCY =          -0.00






         TIME SUMMARY AT END OF TIME STEP   15 IN STRESS PERIOD    7
                    SECONDS     MINUTES      HOURS       DAYS        YEARS
                    -----------------------------------------------------------
   TIME STEP LENGTH  87667.      1461.1      24.352      1.0147     2.77799E-03
 STRESS PERIOD TIME 1.31500E+06  21917.      365.28      15.220     4.16698E-02
         TOTAL TIME 1.45514E+07 2.42524E+05  4042.1      168.42     0.46111    
1
 
 SOLVING FOR HEAD 
                                                   Max.-Head-Change                         Max.-Flux-Residual
  Residual-Control   Outer-Iter.   Inner-Iter.     Column Row Layer    Maximum-Head-Change  Column Row Layer    Maximum-Flux-Residual          L2-NORM 
          0                 1           2             4    7     1      -0.5500708793E-01       4    7    1        -0.2885102149E+01      0.6336746332E+01
          0                 2           2             4    7     1       0.5350639275E-02       4    7    1         0.2885068753E+00      0.6336661423E+00
          0                 3           2             4    7     1      -0.3643591915E-03       4    7    1        -0.2019552159E-01      0.4435635841E-01
          0                 4           1             4    7     1       0.1449819095E-04       4    7    1         0.8259978381E-03      0.1814169089E-02

    ------------------------------------------------
       NWT REQUIRED            4 OUTER ITERATIONS 
       AND A TOTAL OF          7 INNER ITERATIONS.
    ------------------------------------------------

 NO OUTPUT CONTROL FOR STRESS PERIOD    7   TIME STEP   16
 
 SOLVING FOR HEAD 
                                                   Max.-Head-Change                         Max.-Flux-Residual
  Residual-Control   Outer-Iter.   Inner-Iter.     Column Row Layer    Maximum-Head-Change  Column Row Layer    Maximum-Flux-Residual          L2-NORM 
          0                 1           2             4    7     1      -0.5449346766E-01       4    7    1        -0.2858473919E+01      0.6270930206E+01
          0                 2           2             4    7     1       0.5300678188E-02       4    7    1         0.2858440602E+00      0.6270859054E+00
          0                 3           2             4    7     1      -0.3609570250E-03       4    7    1        -0.2000912438E-01      0.4389583124E-01
          0                 4           1             4    7     1       0.1436281562E-04       4    7    1         0.8183741854E-03      0.1795321609E-02

    ------------------------------------------------
       NWT REQUIRED            4 OUTER ITERATIONS 
       AND A TOTAL OF          7 INNER ITERATIONS.
    ------------------------------------------------

 NO OUTPUT CONTROL FOR STRESS PERIOD    7   TIME STEP   17
 
 SOLVING FOR HEAD 
                                                   Max.-Head-Change                         Max.-Flux-Residual
  Residual-Control   Outer-Iter.   Inner-Iter.     Column Row Layer    Maximum-Head-Change  Column Row Layer    Maximum-Flux-Residual          L2-NORM 
          0                 1           2             4    7     1      -0.5397909437E-01       4    7    1        -0.2831770612E+01      0.6207171830E+01
          0                 2           2             4    7     1       0.5250643929E-02       4    7    1         0.2831737429E+00      0.6207106011E+00
          0                 3           2             4    7     1      -0.3575498754E-03       4    7    1        -0.1982220197E-01      0.4344962330E-01
          0                 4           1             4    7     1       0.1422724205E-04       4    7    1         0.8107290475E-03      0.1777073664E-02

    ------------------------------------------------
       NWT REQUIRED            4 OUTER ITERATIONS 
       AND A TOTAL OF          7 INNER ITERATIONS.
    ------------------------------------------------

 NO OUTPUT CONTROL FOR STRESS PERIOD    7   TIME STEP   18
 
 SOLVING FOR HEAD 
                                                   Max.-Head-Change                         Max.-Flux-Residual
  Residual-Control   Outer-Iter.   Inner-Iter.     Column Row Layer    Maximum-Head-Change  Column Row Layer    Maximum-Flux-Residual          L2-NORM 
          0                 1           2             4    7     1      -0.5346462999E-01       4    7    1        -0.2805029232E+01      0.6145376954E+01
          0                 2           2             4    7     1       0.5200600878E-02       4    7    1         0.2804996229E+00      0.6145317753E+00
          0                 3           2             4    7     1      -0.3541421259E-03       4    7    1        -0.1963501330E-01      0.4301718213E-01
          0                 4           1             4    7     1       0.1409164453E-04       4    7    1         0.8030730176E-03      0.1759395283E-02

    ------------------------------------------------
       NWT REQUIRED            4 OUTER ITERATIONS 
       AND A TOTAL OF          7 INNER ITERATIONS.
    ------------------------------------------------

 NO OUTPUT CONTROL FOR STRESS PERIOD    7   TIME STEP   19
 
 SOLVING FOR HEAD 
                                                   Max.-Head-Change                         Max.-Flux-Residual
  Residual-Control   Outer-Iter.   Inner-Iter.     Column Row Layer    Maximum-Head-Change  Column Row Layer    Maximum-Flux-Residual          L2-NORM 
          0                 1           2             4    7     1      -0.5295067184E-01       4    7    1        -0.2778283384E+01      0.6085431227E+01
          0                 2           2             4    7     1       0.5150607129E-02       4    7    1         0.2778250604E+00      0.6085376663E+00
          0                 3           2             4    7     1      -0.3507377335E-03       4    7    1        -0.1944779364E-01      0.4259760377E-01
          0                 4           1             4    7     1       0.1395618056E-04       4    7    1         0.7954157184E-03      0.1742239354E-02

    ------------------------------------------------
       NWT REQUIRED            4 OUTER ITERATIONS 
       AND A TOTAL OF          7 INNER ITERATIONS.
    ------------------------------------------------

 NO OUTPUT CONTROL FOR STRESS PERIOD    7   TIME STEP   20
 
 SOLVING FOR HEAD 
                                                   Max.-Head-Change                         Max.-Flux-Residual
  Residual-Control   Outer-Iter.   Inner-Iter.     Column Row Layer    Maximum-Head-Change  Column Row Layer    Maximum-Flux-Residual          L2-NORM 
          0                 1           2             4    7     1      -0.5243778192E-01       4    7    1        -0.2751564991E+01      0.6027227830E+01
          0                 2           2             4    7     1       0.5100717345E-02       4    7    1         0.2751532473E+00      0.6027177229E+00
          0                 3           2             4    7     1      -0.3473404200E-03       4    7    1        -0.1926076640E-01      0.4219022198E-01
          0                 4           1             4    7     1       0.1382099820E-04       4    7    1         0.7877663045E-03      0.1725579115E-02

    ------------------------------------------------
       NWT REQUIRED            4 OUTER ITERATIONS 
       AND A TOTAL OF          7 INNER ITERATIONS.
    ------------------------------------------------

 NO OUTPUT CONTROL FOR STRESS PERIOD    7   TIME STEP   21
 
 SOLVING FOR HEAD 
                                                   Max.-Head-Change                         Max.-Flux-Residual
  Residual-Control   Outer-Iter.   Inner-Iter.     Column Row Layer    Maximum-Head-Change  Column Row Layer    Maximum-Flux-Residual          L2-NORM 
          0                 1           2             4    7     1      -0.5192673438E-01       4    7    1        -0.2724916773E+01      0.5970711865E+01
          0                 2           2             4    7     1       0.5051006822E-02       4    7    1         0.2724884548E+00      0.5970664397E+00
          0                 3           2             4    7     1      -0.3439553135E-03       4    7    1        -0.1907423058E-01      0.4179464625E-01
          0                 4           1             4    7     1       0.1368630213E-04       4    7    1         0.7801369768E-03      0.1709398577E-02

    ------------------------------------------------
       NWT REQUIRED            4 OUTER ITERATIONS 
       AND A TOTAL OF          7 INNER ITERATIONS.
    ------------------------------------------------

 NO OUTPUT CONTROL FOR STRESS PERIOD    7   TIME STEP   22
 
 SOLVING FOR HEAD 
                                                   Max.-Head-Change                         Max.-Flux-Residual
  Residual-Control   Outer-Iter.   Inner-Iter.     Column Row Layer    Maximum-Head-Change  Column Row Layer    Maximum-Flux-Residual          L2-NORM 
          0                 1           2             4    7     1      -0.5141770142E-01       4    7    1        -0.2698350041E+01      0.5915755229E+01
          0                 2           2             4    7     1       0.5001492303E-02       4    7    1         0.2698318140E+00      0.5915710425E+00
          0                 3           2             4    7     1      -0.3405835532E-03       4    7    1        -0.1888826533E-01      0.4140998356E-01
          0                 4           1             4    7     1       0.1355213657E-04       4    7    1         0.7725309947E-03      0.1693668859E-02

    ------------------------------------------------
       NWT REQUIRED            4 OUTER ITERATIONS 
       AND A TOTAL OF          7 INNER ITERATIONS.
    ------------------------------------------------

 NO OUTPUT CONTROL FOR STRESS PERIOD    7   TIME STEP   23
 
 SOLVING FOR HEAD 
                                                   Max.-Head-Change                         Max.-Flux-Residual
  Residual-Control   Outer-Iter.   Inner-Iter.     Column Row Layer    Maximum-Head-Change  Column Row Layer    Maximum-Flux-Residual          L2-NORM 
          0                 1           2             4    7     1      -0.5091110697E-01       4    7    1        -0.2671888257E+01      0.5862313287E+01
          0                 2           2             4    7     1       0.4952215023E-02       4    7    1         0.2671856706E+00      0.5862270786E+00
          0                 3           2             4    7     1      -0.3372279479E-03       4    7    1        -0.1870303488E-01      0.4103590900E-01
          0                 4           1             4    7     1       0.1341861388E-04       4    7    1         0.7649550757E-03      0.1678366130E-02

    ------------------------------------------------
       NWT REQUIRED            4 OUTER ITERATIONS 
       AND A TOTAL OF          7 INNER ITERATIONS.
    ------------------------------------------------

 NO OUTPUT CONTROL FOR STRESS PERIOD    7   TIME STEP   24
 
 SOLVING FOR HEAD 
                                                   Max.-Head-Change                         Max.-Flux-Residual
  Residual-Control   Outer-Iter.   Inner-Iter.     Column Row Layer    Maximum-Head-Change  Column Row Layer    Maximum-Flux-Residual          L2-NORM 
          0                 1           2             4    7     1      -0.5040733464E-01       4    7    1        -0.2645553165E+01      0.5810311318E+01
          0                 2           2             4    7     1       0.4903212290E-02       4    7    1         0.2645521987E+00      0.5810263821E+00
          0                 3           2             4    7     1      -0.3338910373E-03       4    7    1        -0.1851869140E-01      0.4067187669E-01
          0                 4           1             4    7     1       0.1328583514E-04       4    7    1         0.7574153979E-03      0.1663479308E-02

    ------------------------------------------------
       NWT REQUIRED            4 OUTER ITERATIONS 
       AND A TOTAL OF          7 INNER ITERATIONS.
    ------------------------------------------------

 NO OUTPUT CONTROL FOR STRESS PERIOD    7   TIME STEP   25
 
 SOLVING FOR HEAD 
                                                   Max.-Head-Change                         Max.-Flux-Residual
  Residual-Control   Outer-Iter.   Inner-Iter.     Column Row Layer    Maximum-Head-Change  Column Row Layer    Maximum-Flux-Residual          L2-NORM 
          0                 1           2             4    7     1      -0.4990674097E-01       4    7    1        -0.2619365129E+01      0.5759691749E+01
          0                 2           2             4    7     1       0.4854518949E-02       4    7    1         0.2619334344E+00      0.5759655312E+00
          0                 3           2             4    7     1      -0.3305751927E-03       4    7    1        -0.1833537747E-01      0.4031761122E-01
          0                 4           1             4    7     1       0.1315389454E-04       4    7    1         0.7499178560E-03      0.1648987173E-02

    ------------------------------------------------
       NWT REQUIRED            4 OUTER ITERATIONS 
       AND A TOTAL OF          7 INNER ITERATIONS.
    ------------------------------------------------

 NO OUTPUT CONTROL FOR STRESS PERIOD    7   TIME STEP   26
 
 SOLVING FOR HEAD 
                                                   Max.-Head-Change                         Max.-Flux-Residual
  Residual-Control   Outer-Iter.   Inner-Iter.     Column Row Layer    Maximum-Head-Change  Column Row Layer    Maximum-Flux-Residual          L2-NORM 
          0                 1           2             4    7     1      -0.4940989650E-01       4    7    1        -0.2593356912E+01      0.5710374592E+01
          0                 2           2             4    7     1       0.4806190313E-02       4    7    1         0.2593326536E+00      0.5710341349E+00
          0                 3           2             4    7     1      -0.3272841857E-03       4    7    1        -0.1815332234E-01      0.3997242237E-01
          0                 4           1             4    7     1       0.1302294231E-04       4    7    1         0.7424718005E-03      0.1634880976E-02

    ------------------------------------------------
       NWT REQUIRED            4 OUTER ITERATIONS 
       AND A TOTAL OF          7 INNER ITERATIONS.
    ------------------------------------------------

 NO OUTPUT CONTROL FOR STRESS PERIOD    7   TIME STEP   27
 
 SOLVING FOR HEAD 
                                                   Max.-Head-Change                         Max.-Flux-Residual
  Residual-Control   Outer-Iter.   Inner-Iter.     Column Row Layer    Maximum-Head-Change  Column Row Layer    Maximum-Flux-Residual          L2-NORM 
          0                 1           2             4    7     1      -0.4891667321E-01       4    7    1        -0.2567521441E+01      0.5662315454E+01
          0                 2           2             4    7     1       0.4758213770E-02       4    7    1         0.2567491488E+00      0.5662283327E+00
          0                 3           2             4    7     1      -0.3240171544E-03       4    7    1        -0.1797247651E-01      0.3963601609E-01
          0                 4           1             4    7     1       0.1289294390E-04       4    7    1         0.7350751873E-03      0.1621108322E-02

    ------------------------------------------------
       NWT REQUIRED            4 OUTER ITERATIONS 
       AND A TOTAL OF          7 INNER ITERATIONS.
    ------------------------------------------------

 NO OUTPUT CONTROL FOR STRESS PERIOD    7   TIME STEP   28
 
 SOLVING FOR HEAD 
                                                   Max.-Head-Change                         Max.-Flux-Residual
  Residual-Control   Outer-Iter.   Inner-Iter.     Column Row Layer    Maximum-Head-Change  Column Row Layer    Maximum-Flux-Residual          L2-NORM 
          0                 1           2             4    7     1      -0.4842773296E-01       4    7    1        -0.2541895890E+01      0.5615470344E+01
          0                 2           2             4    7     1       0.4710660347E-02       4    7    1         0.2541866373E+00      0.5617379377E+00
          0                 3           2             4    7     1      -0.3207789359E-03       4    7    1        -0.1779310022E-01      0.3932169057E-01
          0                 4           1             4    7     1       0.1276409206E-04       4    7    1         0.7277386758E-03      0.1608259856E-02

    ------------------------------------------------
       NWT REQUIRED            4 OUTER ITERATIONS 
       AND A TOTAL OF          7 INNER ITERATIONS.
    ------------------------------------------------

 NO OUTPUT CONTROL FOR STRESS PERIOD    7   TIME STEP   29
 
 SOLVING FOR HEAD 
                                                   Max.-Head-Change                         Max.-Flux-Residual
  Residual-Control   Outer-Iter.   Inner-Iter.     Column Row Layer    Maximum-Head-Change  Column Row Layer    Maximum-Flux-Residual          L2-NORM 
          0                 1           2             4    7     1      -0.4794302490E-01       4    7    1        -0.2516478040E+01      0.5575772711E+01
          0                 2           2             4    7     1       0.4663505662E-02       4    7    1         0.2516448967E+00      0.5575463589E+00
          0                 3           2             4    7     1      -0.3175678702E-03       4    7    1        -0.1761517788E-01      0.3902571823E-01
          0                 4           1             4    7     1       0.1263632091E-04       4    7    1         0.7204616441E-03      0.1595989466E-02

    ------------------------------------------------
       NWT REQUIRED            4 OUTER ITERATIONS 
       AND A TOTAL OF          7 INNER ITERATIONS.
    ------------------------------------------------

 NO OUTPUT CONTROL FOR STRESS PERIOD    7   TIME STEP   30



 STREAM LISTING     PERIOD      7   STEP       30

 LAYER ROW COL. STREAM  RCH.  FLOW INTO     FLOW TO   FLOW OUT OF   OVRLND.     DIRECT     STREAM       STREAM     STREAM     STREAM   STREAMBED  STREAMBED
                SEG.NO.  NO.  STRM. RCH.    AQUIFER    STRM. RCH.    RUNOFF     PRECIP       ET          HEAD       DEPTH      WIDTH   CONDCTNC.   GRADIENT

   1    1    1     1     1    7.6939E+01  4.2690E-01   7.6512E+01  0.000E+00  0.000E+00  0.000E+00  1.09476E+03  1.708E+00  2.015E+01  9.068E-02  1.569E+00
   1    2    2     1     2    7.6512E+01  6.6216E-01   7.5850E+01  0.000E+00  0.000E+00  0.000E+00  1.08976E+03  1.705E+00  2.010E+01  1.407E-01  1.568E+00
   1    3    3     1     3    7.5850E+01  5.6572E-01   7.5284E+01  0.000E+00  0.000E+00  0.000E+00  1.08412E+03  1.703E+00  2.005E+01  1.203E-01  1.568E+00
   1    3    4     1     4    7.5284E+01  5.2177E-01   7.4762E+01  0.000E+00  0.000E+00  0.000E+00  1.07911E+03  1.700E+00  2.000E+01  1.110E-01  1.567E+00
   1    4    5     2     1    7.2762E+01  4.1250E-01   7.2350E+01  0.000E+00  0.000E+00  0.000E+00  1.07422E+03  2.288E+00  1.200E+01  7.800E-02  1.763E+00
   1    5    6     2     2    7.2350E+01  3.1689E-01   7.2033E+01  0.000E+00  0.000E+00  0.000E+00  1.06879E+03  2.282E+00  1.200E+01  6.000E-02  1.761E+00
   1    6    6     2     3    7.2033E+01  3.1653E-01   7.1717E+01  0.000E+00  0.000E+00  0.000E+00  1.06407E+03  2.276E+00  1.200E+01  6.000E-02  1.759E+00
   1    7    6     2     4    7.1717E+01  3.1617E-01   7.1400E+01  0.000E+00  0.000E+00  0.000E+00  1.05934E+03  2.270E+00  1.200E+01  6.000E-02  1.757E+00
   1    8    6     2     5    7.1400E+01  3.1581E-01   7.1085E+01  0.000E+00  0.000E+00  0.000E+00  1.05462E+03  2.264E+00  1.200E+01  6.000E-02  1.755E+00
   1    3    5     3     1    2.0000E+00  2.8252E-01   1.7175E+00  0.000E+00  0.000E+00  0.000E+00  1.07555E+03  1.909E+00  9.636E+00  7.227E-02  1.955E+00
   1    3    6     3     2    1.7175E+00  2.4905E-01   1.4684E+00  0.000E+00  0.000E+00  0.000E+00  1.07264E+03  1.727E+00  8.909E+00  6.682E-02  1.864E+00
   1    3    7     3     3    1.4684E+00  1.9718E-01   1.2712E+00  0.000E+00  0.000E+00  0.000E+00  1.06987E+03  1.555E+00  8.218E+00  5.547E-02  1.777E+00
   1    4    8     3     4    1.2712E+00  2.2567E-01   1.0456E+00  0.000E+00  0.000E+00  0.000E+00  1.06682E+03  1.364E+00  7.455E+00  6.709E-02  1.682E+00
   1    5    8     3     5    1.0456E+00  1.5790E-01   8.8768E-01  0.000E+00  0.000E+00  0.000E+00  1.06362E+03  1.164E+00  6.655E+00  4.991E-02  1.582E+00
   1    6    8     3     6    8.8768E-01  5.5980E-02   8.3170E-01  0.000E+00  0.000E+00  0.000E+00  1.06158E+03  1.036E+00  6.145E+00  1.844E-02  1.518E+00
   1    5   10     4     1    1.0000E+01  9.0919E-02   9.9091E+00  0.000E+00  0.000E+00  0.000E+00  1.07836E+03  6.368E-01  1.000E+01  2.500E-02  1.212E+00
   1    5    9     4     2    9.9091E+00  1.8158E-01   9.7275E+00  0.000E+00  0.000E+00  0.000E+00  1.07154E+03  6.315E-01  1.000E+01  5.000E-02  1.211E+00
   1    6    8     4     3    9.7275E+00  1.2689E-01   9.6006E+00  0.000E+00  0.000E+00  0.000E+00  1.06381E+03  6.256E-01  1.000E+01  3.500E-02  1.209E+00
   1    6    8     5     1    1.0432E+01  2.2686E-01   1.0205E+01  0.000E+00  0.000E+00  0.000E+00  1.05868E+03  6.790E-01  1.542E+01  6.166E-02  1.226E+00
   1    7    7     5     2    1.0205E+01  2.7894E-01   9.9265E+00  0.000E+00  0.000E+00  0.000E+00  1.05417E+03  6.732E-01  1.519E+01  7.594E-02  1.224E+00
   1    8    7     5     3    9.9265E+00  1.9221E-01   9.7343E+00  0.000E+00  0.000E+00  0.000E+00  1.04992E+03  6.676E-01  1.497E+01  5.241E-02  1.223E+00
   1    8    6     5     4    9.7343E+00  1.3577E-01   9.5985E+00  0.000E+00  0.000E+00  0.000E+00  1.04691E+03  6.637E-01  1.482E+01  3.706E-02  1.221E+00
   1    9    6     6     1    8.0683E+01  3.2780E-01   8.0355E+01  0.000E+00  0.000E+00  0.000E+00  1.04519E+03  2.463E+00  1.200E+01  6.000E-02  1.821E+00
   1   10    7     6     2    8.0355E+01  3.2743E-01   8.0028E+01  0.000E+00  0.000E+00  0.000E+00  1.04064E+03  2.457E+00  1.200E+01  6.000E-02  1.819E+00
   1   11    7     6     3    8.0028E+01  3.2707E-01   7.9701E+01  0.000E+00  0.000E+00  0.000E+00  1.03609E+03  2.451E+00  1.200E+01  6.000E-02  1.817E+00
   1   12    7     6     4    7.9701E+01  3.2671E-01   7.9374E+01  0.000E+00  0.000E+00  0.000E+00  1.03154E+03  2.445E+00  1.200E+01  6.000E-02  1.815E+00
   1   13    7     6     5    7.9374E+01  2.6850E-02   7.9347E+01  0.000E+00  0.000E+00  0.000E+00  1.02835E+03  2.442E+00  1.200E+01  2.400E-02  3.729E-01
   1   14    9     7     1    1.5000E+02  1.3318E+00   1.4867E+02  0.000E+00  0.000E+00  0.000E+00  1.03987E+03  2.288E+00  5.529E+01  5.593E-01  7.937E-01
   1   13    8     7     2    1.4867E+02  1.8024E+00   1.4687E+02  0.000E+00  0.000E+00  0.000E+00  1.03478E+03  2.279E+00  5.526E+01  6.148E-01  9.772E-01
   1   13    7     7     3    1.4687E+02  1.3727E+00   1.4549E+02  0.000E+00  0.000E+00  0.000E+00  1.02969E+03  2.271E+00  5.522E+01  5.585E-01  8.193E-01
   1   13    6     8     1    2.2484E+02  1.0255E+00   2.2381E+02  0.000E+00  0.000E+00  0.000E+00  1.02515E+03  3.276E+00  4.750E+01  4.840E-01  7.063E-01
   1   13    5     8     2    2.2381E+02  2.0275E-01   2.2361E+02  0.000E+00  0.000E+00  0.000E+00  1.01890E+03  3.272E+00  4.745E+01  4.835E-01  1.398E-01
   1   13    4     8     3    2.2361E+02 -2.0971E+00   2.2571E+02  0.000E+00  0.000E+00  0.000E+00  1.01265E+03  3.278E+00  4.752E+01  4.843E+00 -1.443E-01
   1   13    3     8     4    2.2571E+02 -3.2558E+00   2.2896E+02  0.000E+00  0.000E+00  0.000E+00  1.00642E+03  3.292E+00  4.774E+01  4.864E+00 -2.231E-01
   1   13    2     8     5    2.2896E+02 -2.6242E+00   2.3159E+02  0.000E+00  0.000E+00  0.000E+00  1.00018E+03  3.308E+00  4.797E+01  4.888E+00 -1.790E-01
   1   13    1     8     6    2.3159E+02 -2.0373E+00   2.3363E+02  0.000E+00  0.000E+00  0.000E+00  9.95196E+02  3.321E+00  4.815E+01  2.944E+00 -2.307E-01





UNSATURATED ZONE PACKAGE VOLUMETRIC BUDGET FOR  TIME STEP    30 STRESS PERIOD    7
  ------------------------------------------------------------------------------



     CUMULATIVE VOLUMES      L**3       RATES FOR THIS TIME STEP      L**3/T
     ------------------                 ------------------------

           IN:                                      IN:
           ---                                      ---
        INFILTRATION =   156599156.5818          INFILTRATION =          26.5618

          OUT:                                     OUT:
          ----                                     ----
              UZF ET =   136328185.6868                UZF ET =          26.6075
        UZF RECHARGE =       73224.0000          UZF RECHARGE =       0.0000E+00

            IN - OUT =    20197746.8950              IN - OUT =      -4.5727E-02

          STORAGE:                                 STORAGE:
          --------                                 --------
      STORAGE CHANGE =    20198451.5800        STORAGE CHANGE =      -4.5729E-02

 PERCENT DISCREPANCY IS DIFFERENCE BETWEEN IN-OUT MINUS CHANGE IN STORAGE
 DIVIDED BY THE AVERAGE OF IN AND OUT TIMES 100

 PERCENT DISCREPANCY =          -0.00     PERCENT DISCREPANCY =           0.00






1
  VOLUMETRIC BUDGET FOR ENTIRE MODEL AT END OF TIME STEP   30, STRESS PERIOD   7
  ------------------------------------------------------------------------------

     CUMULATIVE VOLUMES      L**3       RATES FOR THIS TIME STEP      L**3/T
     ------------------                 ------------------------

           IN:                                      IN:
           ---                                      ---
               AG WELLS  =    86975600.0000                 AG WELLS  =          22.1543
      DIVERSION SEGMENTS =           0.0000        DIVERSION SEGMENTS =           0.0000
           GW IRRIGATION =           0.0000             GW IRRIGATION =           0.0000
           SW IRRIGATION =           0.0000             SW IRRIGATION =           0.0000
        SYSTEM LOSSES GW =           0.0000          SYSTEM LOSSES GW =           0.0000
        SYSTEM LOSSES SW =           0.0000          SYSTEM LOSSES SW =           0.0000

                TOTAL IN =    86975600.0000                  TOTAL IN =          22.1543

          OUT:                                     OUT:
          ----                                     ----
               AG WELLS  =           0.0000                 AG WELLS  =           0.0000
      DIVERSION SEGMENTS =           0.0000        DIVERSION SEGMENTS =           0.0000
           GW IRRIGATION =    86975600.0000             GW IRRIGATION =          22.1543
           SW IRRIGATION =           0.0000             SW IRRIGATION =           0.0000
        SYSTEM LOSSES GW =           0.0000          SYSTEM LOSSES GW =           0.0000
        SYSTEM LOSSES SW =           0.0000          SYSTEM LOSSES SW =           0.0000

               TOTAL OUT =    86975600.0000                 TOTAL OUT =          22.1543

                IN - OUT =           0.0000                  IN - OUT =           0.0000

     PERCENT DISCREPANCY =           0.00         PERCENT DISCREPANCY =           0.00



1
  VOLUMETRIC BUDGET FOR ENTIRE MODEL AT END OF TIME STEP   30, STRESS PERIOD   7
  ------------------------------------------------------------------------------

     CUMULATIVE VOLUMES      L**3       RATES FOR THIS TIME STEP      L**3/T
     ------------------                 ------------------------

           IN:                                      IN:
           ---                                      ---
             STORAGE     =    93636744.0000               STORAGE     =          21.7075
       CONSTANT HEAD     =           0.0000         CONSTANT HEAD     =           0.0000
     HEAD DEP BOUNDS     =     4529104.5000       HEAD DEP BOUNDS     =           0.2855
      STREAM LEAKAGE     =   202202496.0000        STREAM LEAKAGE     =          13.3270
        UZF RECHARGE     =       73223.9531          UZF RECHARGE     =           0.0000
               GW ET     =           0.0000                 GW ET     =           0.0000
     SURFACE LEAKAGE     =           0.0000       SURFACE LEAKAGE     =           0.0000
           AG WELLS      =           0.0000             AG WELLS      =           0.0000

                TOTAL IN =   300441568.0000                  TOTAL IN =          35.3200

          OUT:                                     OUT:
          ----                                     ----
             STORAGE     =    42555468.0000               STORAGE     =           1.5799
       CONSTANT HEAD     =           0.0000         CONSTANT HEAD     =           0.0000
     HEAD DEP BOUNDS     =     4674125.5000       HEAD DEP BOUNDS     =           0.2997
      STREAM LEAKAGE     =   160473680.0000        STREAM LEAKAGE     =          10.0144
        UZF RECHARGE     =           0.0000          UZF RECHARGE     =           0.0000
               GW ET     =     5765964.5000                 GW ET     =           1.2717
     SURFACE LEAKAGE     =           0.0000       SURFACE LEAKAGE     =           0.0000
           AG WELLS      =    86975600.0000             AG WELLS      =          22.1543

               TOTAL OUT =   300444832.0000                 TOTAL OUT =          35.3200

                IN - OUT =       -3264.0000                  IN - OUT =      -6.8665E-05

     PERCENT DISCREPANCY =          -0.00         PERCENT DISCREPANCY =          -0.00






         TIME SUMMARY AT END OF TIME STEP   30 IN STRESS PERIOD    7
                    SECONDS     MINUTES      HOURS       DAYS        YEARS
                    -----------------------------------------------------------
   TIME STEP LENGTH  87667.      1461.1      24.352      1.0147     2.77799E-03
 STRESS PERIOD TIME 2.63000E+06  43833.      730.56      30.440     8.33397E-02
         TOTAL TIME 1.58664E+07 2.64440E+05  4407.3      183.64     0.50278    
1
1
                            STRESS PERIOD NO.    8, LENGTH =   2630000.    
                            -----------------------------------------------

                              NUMBER OF TIME STEPS =    30

                               MULTIPLIER FOR DELT =     1.000

                            INITIAL TIME STEP SIZE =   87666.66    

 REUSING NON-PARAMETER GHB CELLS FROM LAST STRESS PERIOD

      2 GHB CELLS

 REUSING STREAM SEGMENT DATA FROM LAST STRESS PERIOD



            AREAL INFILTRATION RATE
 READING ON UNIT   19 WITH FORMAT: (10F4.0)            

            1           2           3           4           5           6           7           8           9          10
 ........................................................................................................................
   1   1.2000E-09   0.000       0.000       0.000       0.000       0.000       0.000       0.000       0.000       0.000    
   2   2.1000E-09  2.0000E-09  8.0000E-10  8.5000E-09   0.000       0.000       0.000       0.000       0.000       0.000    
   3   5.0000E-10  1.1000E-09  8.8000E-09  5.5000E-09   0.000       0.000       0.000       0.000       0.000       0.000    
   4   8.5000E-09  1.1000E-09  1.1000E-09  1.1000E-09  2.0000E-09   0.000       0.000       0.000       0.000       0.000    
   5   8.5000E-09  1.1000E-09  1.1000E-09  1.1000E-09  1.1000E-09   0.000       0.000       0.000       0.000       0.000    
   6   8.5000E-09  5.2000E-09  2.1000E-09  1.1000E-09  1.5000E-09   0.000       0.000       0.000       0.000       0.000    
   7   8.5000E-09  5.2000E-09  2.1000E-09  1.2000E-09  2.0000E-09   0.000       0.000       0.000       0.000       0.000    
   8   5.0000E-10  5.2000E-09  2.1000E-09  1.2000E-09  5.0000E-09   0.000       0.000       0.000       0.000       0.000    
   9   5.0000E-10  5.2000E-09  2.1000E-09  1.2000E-09  5.0000E-09   0.000       0.000       0.000       0.000       0.000    
  10   5.0000E-10  5.2000E-09  2.1000E-09  1.2000E-09  5.8000E-09   0.000       0.000       0.000       0.000       0.000    
  11   1.0000E-10  1.1000E-09  1.1000E-09  1.2000E-09  5.0000E-09   0.000       0.000       0.000       0.000       0.000    
  12   1.1000E-09  1.1000E-09  1.1000E-09  1.1000E-09  2.0000E-09   0.000       0.000       0.000       0.000       0.000    
  13   1.1000E-09  2.2000E-09  2.2000E-09  2.1000E-09  1.0000E-09   0.000       0.000       0.000       0.000       0.000    
  14   2.0000E-10  5.5000E-09  5.5000E-09  5.2000E-09  1.0000E-09   0.000       0.000       0.000       0.000       0.000    
  15    0.000      8.8000E-09  8.8000E-09   0.000       0.000       0.000       0.000       0.000       0.000       0.000    

                  ET RATE =  4.000000E-07

 USING ET EXTINCTION DEPTH FROM PREVIOUS STRESS PERIOD. CURRENT PERIOD IS:       8

 USING EXTINCTION WATER CONTENT FROM PREVIOUS STRESS PERIOD. CURRENT PERIOD IS:       8

 USING AIR ENTRY PRESSURE FROM PREVIOUS STRESS PERIOD. CURRENT PERIOD IS:       8

 USING ROOT PRESSURE HEAD FROM PREVIOUS STRESS PERIOD. CURRENT PERIOD IS:       8

 USING ROOT ACTIVITY FROM PREVIOUS STRESS PERIOD. CURRENT PERIOD IS:       8

 PROCESSING AG STRESS PERIOD DATA

 READING AG STRESS PERIOD DATA

 READING IRRIGATION WELL

 END PROCESSING AG STRESS PERIOD DATA OPTIONS
 
 SOLVING FOR HEAD 
                                                   Max.-Head-Change                         Max.-Flux-Residual
  Residual-Control   Outer-Iter.   Inner-Iter.     Column Row Layer    Maximum-Head-Change  Column Row Layer    Maximum-Flux-Residual          L2-NORM 
          0                 1           2             4    7     1      -0.1671678669E+00       4    7    1        -0.8741288187E+01      0.2054796503E+02
          0                 2           2             4    7     1       0.1626060078E-01       4    7    1         0.8741106091E+00      0.2054537338E+01
          0                 3           2             4    7     1      -0.1107289313E-02       4    7    1        -0.6118794136E-01      0.1437972902E+00
          0                 4           1             4    7     1       0.4406006579E-04       4    7    1         0.2502589502E-02      0.5880052113E-02

    ------------------------------------------------
       NWT REQUIRED            4 OUTER ITERATIONS 
       AND A TOTAL OF          7 INNER ITERATIONS.
    ------------------------------------------------

 OUTPUT CONTROL FOR STRESS PERIOD    8   TIME STEP    1
    PRINT BUDGET
    SAVE BUDGET
 UBDSV1 SAVING "         STORAGE" ON UNIT 102 AT TIME STEP  1, STRESS PERIOD   8
 UBDSV2 SAVING "   CONSTANT HEAD" ON UNIT 102 AT TIME STEP  1, STRESS PERIOD   8
 UBDSV1 SAVING "FLOW RIGHT FACE " ON UNIT 102 AT TIME STEP  1, STRESS PERIOD   8
 UBDSV1 SAVING "FLOW FRONT FACE " ON UNIT 102 AT TIME STEP  1, STRESS PERIOD   8

  HEAD DEP BOUNDS   PERIOD    8   STEP     1
 BOUNDARY      1   LAYER   1   ROW    13   COL     1   RATE   -0.299665    
 BOUNDARY      2   LAYER   1   ROW    14   COL     9   RATE    0.285485    



 STREAM LISTING     PERIOD      8   STEP        1

 LAYER ROW COL. STREAM  RCH.  FLOW INTO     FLOW TO   FLOW OUT OF   OVRLND.     DIRECT     STREAM       STREAM     STREAM     STREAM   STREAMBED  STREAMBED
                SEG.NO.  NO.  STRM. RCH.    AQUIFER    STRM. RCH.    RUNOFF     PRECIP       ET          HEAD       DEPTH      WIDTH   CONDCTNC.   GRADIENT

   1    1    1     1     1    7.5000E+01  4.2232E-01   7.4578E+01  0.000E+00  0.000E+00  0.000E+00  1.09475E+03  1.698E+00  1.998E+01  8.990E-02  1.566E+00
   1    2    2     1     2    7.4578E+01  6.5422E-01   7.3924E+01  0.000E+00  0.000E+00  0.000E+00  1.08975E+03  1.692E+00  1.992E+01  1.394E-01  1.564E+00
   1    3    3     1     3    7.3924E+01  5.5813E-01   7.3366E+01  0.000E+00  0.000E+00  0.000E+00  1.08410E+03  1.685E+00  1.985E+01  1.191E-01  1.562E+00
   1    3    4     1     4    7.3366E+01  5.1412E-01   7.2852E+01  0.000E+00  0.000E+00  0.000E+00  1.07909E+03  1.679E+00  1.980E+01  1.099E-01  1.560E+00
   1    4    5     2     1    7.0852E+01  4.0967E-01   7.0442E+01  0.000E+00  0.000E+00  0.000E+00  1.07419E+03  2.252E+00  1.200E+01  7.800E-02  1.751E+00
   1    5    6     2     2    7.0442E+01  3.1471E-01   7.0127E+01  0.000E+00  0.000E+00  0.000E+00  1.06875E+03  2.245E+00  1.200E+01  6.000E-02  1.748E+00
   1    6    6     2     3    7.0127E+01  3.1435E-01   6.9813E+01  0.000E+00  0.000E+00  0.000E+00  1.06403E+03  2.239E+00  1.200E+01  6.000E-02  1.746E+00
   1    7    6     2     4    6.9813E+01  3.1399E-01   6.9499E+01  0.000E+00  0.000E+00  0.000E+00  1.05931E+03  2.233E+00  1.200E+01  6.000E-02  1.744E+00
   1    8    6     2     5    6.9499E+01  3.1363E-01   6.9185E+01  0.000E+00  0.000E+00  0.000E+00  1.05459E+03  2.227E+00  1.200E+01  6.000E-02  1.742E+00
   1    3    5     3     1    2.0000E+00  2.8252E-01   1.7175E+00  0.000E+00  0.000E+00  0.000E+00  1.07555E+03  1.909E+00  9.636E+00  7.227E-02  1.955E+00
   1    3    6     3     2    1.7175E+00  2.4905E-01   1.4684E+00  0.000E+00  0.000E+00  0.000E+00  1.07264E+03  1.727E+00  8.909E+00  6.682E-02  1.864E+00
   1    3    7     3     3    1.4684E+00  1.9718E-01   1.2712E+00  0.000E+00  0.000E+00  0.000E+00  1.06987E+03  1.555E+00  8.218E+00  5.547E-02  1.777E+00
   1    4    8     3     4    1.2712E+00  2.2567E-01   1.0456E+00  0.000E+00  0.000E+00  0.000E+00  1.06682E+03  1.364E+00  7.455E+00  6.709E-02  1.682E+00
   1    5    8     3     5    1.0456E+00  1.5790E-01   8.8768E-01  0.000E+00  0.000E+00  0.000E+00  1.06362E+03  1.164E+00  6.655E+00  4.991E-02  1.582E+00
   1    6    8     3     6    8.8768E-01  5.5980E-02   8.3170E-01  0.000E+00  0.000E+00  0.000E+00  1.06158E+03  1.036E+00  6.145E+00  1.844E-02  1.518E+00
   1    5   10     4     1    1.0000E+01  9.0919E-02   9.9091E+00  0.000E+00  0.000E+00  0.000E+00  1.07836E+03  6.368E-01  1.000E+01  2.500E-02  1.212E+00
   1    5    9     4     2    9.9091E+00  1.8158E-01   9.7275E+00  0.000E+00  0.000E+00  0.000E+00  1.07154E+03  6.315E-01  1.000E+01  5.000E-02  1.211E+00
   1    6    8     4     3    9.7275E+00  1.2689E-01   9.6006E+00  0.000E+00  0.000E+00  0.000E+00  1.06381E+03  6.256E-01  1.000E+01  3.500E-02  1.209E+00
   1    6    8     5     1    1.0432E+01  2.2686E-01   1.0205E+01  0.000E+00  0.000E+00  0.000E+00  1.05868E+03  6.790E-01  1.542E+01  6.166E-02  1.226E+00
   1    7    7     5     2    1.0205E+01  2.7894E-01   9.9265E+00  0.000E+00  0.000E+00  0.000E+00  1.05417E+03  6.732E-01  1.519E+01  7.594E-02  1.224E+00
   1    8    7     5     3    9.9265E+00  1.9221E-01   9.7343E+00  0.000E+00  0.000E+00  0.000E+00  1.04992E+03  6.676E-01  1.497E+01  5.241E-02  1.223E+00
   1    8    6     5     4    9.7343E+00  1.3577E-01   9.5985E+00  0.000E+00  0.000E+00  0.000E+00  1.04691E+03  6.637E-01  1.482E+01  3.706E-02  1.221E+00
   1    9    6     6     1    7.8784E+01  3.2569E-01   7.8458E+01  0.000E+00  0.000E+00  0.000E+00  1.04516E+03  2.428E+00  1.200E+01  6.000E-02  1.809E+00
   1   10    7     6     2    7.8458E+01  3.2533E-01   7.8133E+01  0.000E+00  0.000E+00  0.000E+00  1.04060E+03  2.422E+00  1.200E+01  6.000E-02  1.807E+00
   1   11    7     6     3    7.8133E+01  3.2497E-01   7.7808E+01  0.000E+00  0.000E+00  0.000E+00  1.03605E+03  2.416E+00  1.200E+01  6.000E-02  1.805E+00
   1   12    7     6     4    7.7808E+01  3.2461E-01   7.7483E+01  0.000E+00  0.000E+00  0.000E+00  1.03150E+03  2.410E+00  1.200E+01  6.000E-02  1.803E+00
   1   13    7     6     5    7.7483E+01  2.5996E-02   7.7457E+01  0.000E+00  0.000E+00  0.000E+00  1.02832E+03  2.407E+00  1.200E+01  2.400E-02  3.611E-01
   1   14    9     7     1    1.5000E+02  1.3318E+00   1.4867E+02  0.000E+00  0.000E+00  0.000E+00  1.03987E+03  2.288E+00  5.529E+01  5.593E-01  7.937E-01
   1   13    8     7     2    1.4867E+02  1.8022E+00   1.4687E+02  0.000E+00  0.000E+00  0.000E+00  1.03478E+03  2.279E+00  5.526E+01  6.148E-01  9.772E-01
   1   13    7     7     3    1.4687E+02  1.3724E+00   1.4549E+02  0.000E+00  0.000E+00  0.000E+00  1.02969E+03  2.271E+00  5.522E+01  5.585E-01  8.192E-01
   1   13    6     8     1    2.2295E+02  1.0173E+00   2.2193E+02  0.000E+00  0.000E+00  0.000E+00  1.02514E+03  3.265E+00  4.735E+01  4.825E-01  7.028E-01
   1   13    5     8     2    2.2193E+02  1.9728E-01   2.2174E+02  0.000E+00  0.000E+00  0.000E+00  1.01889E+03  3.262E+00  4.730E+01  4.820E-01  1.364E-01
   1   13    4     8     3    2.2174E+02 -2.0698E+00   2.2381E+02  0.000E+00  0.000E+00  0.000E+00  1.01264E+03  3.267E+00  4.737E+01  4.828E+00 -1.429E-01
   1   13    3     8     4    2.2381E+02 -3.2247E+00   2.2703E+02  0.000E+00  0.000E+00  0.000E+00  1.00641E+03  3.282E+00  4.758E+01  4.849E+00 -2.217E-01
   1   13    2     8     5    2.2703E+02 -2.6525E+00   2.2968E+02  0.000E+00  0.000E+00  0.000E+00  1.00017E+03  3.298E+00  4.782E+01  4.873E+00 -1.815E-01
   1   13    1     8     6    2.2968E+02 -2.0559E+00   2.3174E+02  0.000E+00  0.000E+00  0.000E+00  9.95185E+02  3.310E+00  4.800E+01  2.935E+00 -2.335E-01



 UBDSV3 SAVING "           GW ET" ON UNIT  61 AT TIME STEP  1, STRESS PERIOD   8
 UBDSV3 SAVING "    UZF RECHARGE" ON UNIT  61 AT TIME STEP  1, STRESS PERIOD   8
 UBDSV3 SAVING " SURFACE LEAKAGE" ON UNIT  61 AT TIME STEP  1, STRESS PERIOD   8
 UBDSV3 SAVING "       HORT+DUNN" ON UNIT  61 AT TIME STEP  1, STRESS PERIOD   8
 UBDSV3 SAVING "  STORAGE CHANGE" ON UNIT  61 AT TIME STEP  1, STRESS PERIOD   8


UNSATURATED ZONE PACKAGE VOLUMETRIC BUDGET FOR  TIME STEP     1 STRESS PERIOD    8
  ------------------------------------------------------------------------------



     CUMULATIVE VOLUMES      L**3       RATES FOR THIS TIME STEP      L**3/T
     ------------------                 ------------------------

           IN:                                      IN:
           ---                                      ---
        INFILTRATION =   162215356.4011          INFILTRATION =          64.0631

          OUT:                                     OUT:
          ----                                     ----
              UZF ET =   141948276.2561                UZF ET =          64.1075
        UZF RECHARGE =       73224.0000          UZF RECHARGE =       0.0000E+00

            IN - OUT =    20193856.1450              IN - OUT =      -4.4382E-02

          STORAGE:                                 STORAGE:
          --------                                 --------
      STORAGE CHANGE =    20194560.7028        STORAGE CHANGE =      -4.4383E-02

 PERCENT DISCREPANCY IS DIFFERENCE BETWEEN IN-OUT MINUS CHANGE IN STORAGE
 DIVIDED BY THE AVERAGE OF IN AND OUT TIMES 100

 PERCENT DISCREPANCY =          -0.00     PERCENT DISCREPANCY =           0.00






 

            AG WELLS      PERIOD    8   STEP   1
 AG WELL      1   LAYER   1   ROW     6   COL     4   RATE    -9.96867    
 AG WELL      2   LAYER   1   ROW     6   COL     5   RATE    -9.95547    
 AG WELL      3   LAYER   1   ROW     7   COL     4   RATE    -9.96111    
 AG WELL      4   LAYER   1   ROW     7   COL     5   RATE    -9.94129    
 AG WELL      5   LAYER   1   ROW     8   COL     4   RATE    -9.96111    
 AG WELL      6   LAYER   1   ROW     8   COL     5   RATE    -9.86795    
 
 

        GW IRRIGATION     PERIOD    8   STEP   1
 AG WELL      1   ROW     6   COL     4   RATE     9.96867    
 AG WELL      2   ROW     6   COL     5   RATE     9.95547    
 AG WELL      3   ROW     7   COL     4   RATE     9.96111    
 AG WELL      4   ROW     7   COL     5   RATE     9.94129    
 AG WELL      5   ROW     8   COL     4   RATE     9.96111    
 AG WELL      6   ROW     8   COL     5   RATE     9.86795    
 
1
  VOLUMETRIC BUDGET FOR ENTIRE MODEL AT END OF TIME STEP    1, STRESS PERIOD   8
  ------------------------------------------------------------------------------

     CUMULATIVE VOLUMES      L**3       RATES FOR THIS TIME STEP      L**3/T
     ------------------                 ------------------------

           IN:                                      IN:
           ---                                      ---
               AG WELLS  =    92205408.0000                 AG WELLS  =          59.6556
      DIVERSION SEGMENTS =           0.0000        DIVERSION SEGMENTS =           0.0000
           GW IRRIGATION =           0.0000             GW IRRIGATION =           0.0000
           SW IRRIGATION =           0.0000             SW IRRIGATION =           0.0000
        SYSTEM LOSSES GW =           0.0000          SYSTEM LOSSES GW =           0.0000
        SYSTEM LOSSES SW =           0.0000          SYSTEM LOSSES SW =           0.0000

                TOTAL IN =    92205408.0000                  TOTAL IN =          59.6556

          OUT:                                     OUT:
          ----                                     ----
               AG WELLS  =           0.0000                 AG WELLS  =           0.0000
      DIVERSION SEGMENTS =           0.0000        DIVERSION SEGMENTS =           0.0000
           GW IRRIGATION =    92205408.0000             GW IRRIGATION =          59.6556
           SW IRRIGATION =           0.0000             SW IRRIGATION =           0.0000
        SYSTEM LOSSES GW =           0.0000          SYSTEM LOSSES GW =           0.0000
        SYSTEM LOSSES SW =           0.0000          SYSTEM LOSSES SW =           0.0000

               TOTAL OUT =    92205408.0000                 TOTAL OUT =          59.6556

                IN - OUT =           0.0000                  IN - OUT =           0.0000

     PERCENT DISCREPANCY =           0.00         PERCENT DISCREPANCY =           0.00



1
  VOLUMETRIC BUDGET FOR ENTIRE MODEL AT END OF TIME STEP    1, STRESS PERIOD   8
  ------------------------------------------------------------------------------

     CUMULATIVE VOLUMES      L**3       RATES FOR THIS TIME STEP      L**3/T
     ------------------                 ------------------------

           IN:                                      IN:
           ---                                      ---
             STORAGE     =    98962992.0000               STORAGE     =          60.7556
       CONSTANT HEAD     =           0.0000         CONSTANT HEAD     =           0.0000
     HEAD DEP BOUNDS     =     4554132.0000       HEAD DEP BOUNDS     =           0.2855
      STREAM LEAKAGE     =   203365328.0000        STREAM LEAKAGE     =          13.2642
        UZF RECHARGE     =       73223.9531          UZF RECHARGE     =           0.0000
               GW ET     =           0.0000                 GW ET     =           0.0000
     SURFACE LEAKAGE     =           0.0000       SURFACE LEAKAGE     =           0.0000
           AG WELLS      =           0.0000             AG WELLS      =           0.0000

                TOTAL IN =   306955648.0000                  TOTAL IN =          74.3053

          OUT:                                     OUT:
          ----                                     ----
             STORAGE     =    42687784.0000               STORAGE     =           1.5093
       CONSTANT HEAD     =           0.0000         CONSTANT HEAD     =           0.0000
     HEAD DEP BOUNDS     =     4700396.0000       HEAD DEP BOUNDS     =           0.2997
      STREAM LEAKAGE     =   161350608.0000        STREAM LEAKAGE     =          10.0030
        UZF RECHARGE     =           0.0000          UZF RECHARGE     =           0.0000
               GW ET     =     6014757.0000                 GW ET     =           2.8379
     SURFACE LEAKAGE     =           0.0000       SURFACE LEAKAGE     =           0.0000
           AG WELLS      =    92205408.0000             AG WELLS      =          59.6556

               TOTAL OUT =   306958944.0000                 TOTAL OUT =          74.3055

                IN - OUT =       -3296.0000                  IN - OUT =      -2.0599E-04

     PERCENT DISCREPANCY =          -0.00         PERCENT DISCREPANCY =          -0.00






         TIME SUMMARY AT END OF TIME STEP    1 IN STRESS PERIOD    8
                    SECONDS     MINUTES      HOURS       DAYS        YEARS
                    -----------------------------------------------------------
   TIME STEP LENGTH  87667.      1461.1      24.352      1.0147     2.77799E-03
 STRESS PERIOD TIME  87667.      1461.1      24.352      1.0147     2.77799E-03
         TOTAL TIME 1.59541E+07 2.65901E+05  4431.7      184.65     0.50555    
1
 
 SOLVING FOR HEAD 
                                                   Max.-Head-Change                         Max.-Flux-Residual
  Residual-Control   Outer-Iter.   Inner-Iter.     Column Row Layer    Maximum-Head-Change  Column Row Layer    Maximum-Flux-Residual          L2-NORM 
          0                 1           2             4    7     1      -0.1658046732E+00       4    7    1        -0.8672511177E+01      0.2017399131E+02
          0                 2           2             4    7     1       0.1612798560E-01       4    7    1         0.8672319927E+00      0.2017250041E+01
          0                 3           2             4    7     1      -0.1098258844E-02       4    7    1        -0.6070644667E-01      0.1411971066E+00
          0                 4           1             4    7     1       0.4370073402E-04       4    7    1         0.2482896287E-02      0.5774302132E-02

    ------------------------------------------------
       NWT REQUIRED            4 OUTER ITERATIONS 
       AND A TOTAL OF          7 INNER ITERATIONS.
    ------------------------------------------------

 NO OUTPUT CONTROL FOR STRESS PERIOD    8   TIME STEP    2
 
 SOLVING FOR HEAD 
                                                   Max.-Head-Change                         Max.-Flux-Residual
  Residual-Control   Outer-Iter.   Inner-Iter.     Column Row Layer    Maximum-Head-Change  Column Row Layer    Maximum-Flux-Residual          L2-NORM 
          0                 1           2             4    7     1      -0.1646617296E+00       4    7    1        -0.8615429284E+01      0.1986094450E+02
          0                 2           2             4    7     1       0.1601679392E-01       4    7    1         0.8615228198E+00      0.1986001211E+01
          0                 3           2             4    7     1      -0.1090687244E-02       4    7    1        -0.6030681371E-01      0.1390146999E+00
          0                 4           1             4    7     1       0.4339945245E-04       4    7    1         0.2466551240E-02      0.5685339904E-02

    ------------------------------------------------
       NWT REQUIRED            4 OUTER ITERATIONS 
       AND A TOTAL OF          7 INNER ITERATIONS.
    ------------------------------------------------

 NO OUTPUT CONTROL FOR STRESS PERIOD    8   TIME STEP    3
 
 SOLVING FOR HEAD 
                                                   Max.-Head-Change                         Max.-Flux-Residual
  Residual-Control   Outer-Iter.   Inner-Iter.     Column Row Layer    Maximum-Head-Change  Column Row Layer    Maximum-Flux-Residual          L2-NORM 
          0                 1           2             4    7     1      -0.1634786094E+00       4    7    1        -0.8556020623E+01      0.1957061803E+02
          0                 2           2             4    7     1       0.1590169603E-01       4    7    1         0.8555810969E+00      0.1956997338E+01
          0                 3           2             4    7     1      -0.1082849626E-02       4    7    1        -0.5989090101E-01      0.1369870891E+00
          0                 4           1             4    7     1       0.4308758595E-04       4    7    1         0.2449540338E-02      0.5602603777E-02

    ------------------------------------------------
       NWT REQUIRED            4 OUTER ITERATIONS 
       AND A TOTAL OF          7 INNER ITERATIONS.
    ------------------------------------------------

 NO OUTPUT CONTROL FOR STRESS PERIOD    8   TIME STEP    4
 
 SOLVING FOR HEAD 
                                                   Max.-Head-Change                         Max.-Flux-Residual
  Residual-Control   Outer-Iter.   Inner-Iter.     Column Row Layer    Maximum-Head-Change  Column Row Layer    Maximum-Flux-Residual          L2-NORM 
          0                 1           2             4    7     1      -0.1622598782E+00       4    7    1        -0.8494537186E+01      0.1929714574E+02
          0                 2           2             4    7     1       0.1578313590E-01       4    7    1         0.8494320131E+00      0.1929665143E+01
          0                 3           2             4    7     1      -0.1074776227E-02       4    7    1        -0.5946047195E-01      0.1350751770E+00
          0                 4           1             4    7     1       0.4276633688E-04       4    7    1         0.2431935731E-02      0.5524493458E-02

    ------------------------------------------------
       NWT REQUIRED            4 OUTER ITERATIONS 
       AND A TOTAL OF          7 INNER ITERATIONS.
    ------------------------------------------------

 OUTPUT CONTROL FOR STRESS PERIOD    8   TIME STEP    5
    PRINT BUDGET
    SAVE BUDGET
 UBDSV1 SAVING "         STORAGE" ON UNIT 102 AT TIME STEP  5, STRESS PERIOD   8
 UBDSV2 SAVING "   CONSTANT HEAD" ON UNIT 102 AT TIME STEP  5, STRESS PERIOD   8
 UBDSV1 SAVING "FLOW RIGHT FACE " ON UNIT 102 AT TIME STEP  5, STRESS PERIOD   8
 UBDSV1 SAVING "FLOW FRONT FACE " ON UNIT 102 AT TIME STEP  5, STRESS PERIOD   8

  HEAD DEP BOUNDS   PERIOD    8   STEP     5
 BOUNDARY      1   LAYER   1   ROW    13   COL     1   RATE   -0.299428    
 BOUNDARY      2   LAYER   1   ROW    14   COL     9   RATE    0.285483    



 STREAM LISTING     PERIOD      8   STEP        5

 LAYER ROW COL. STREAM  RCH.  FLOW INTO     FLOW TO   FLOW OUT OF   OVRLND.     DIRECT     STREAM       STREAM     STREAM     STREAM   STREAMBED  STREAMBED
                SEG.NO.  NO.  STRM. RCH.    AQUIFER    STRM. RCH.    RUNOFF     PRECIP       ET          HEAD       DEPTH      WIDTH   CONDCTNC.   GRADIENT

   1    1    1     1     1    7.5000E+01  4.2232E-01   7.4578E+01  0.000E+00  0.000E+00  0.000E+00  1.09475E+03  1.698E+00  1.998E+01  8.990E-02  1.566E+00
   1    2    2     1     2    7.4578E+01  6.5422E-01   7.3924E+01  0.000E+00  0.000E+00  0.000E+00  1.08975E+03  1.692E+00  1.992E+01  1.394E-01  1.564E+00
   1    3    3     1     3    7.3924E+01  5.5813E-01   7.3366E+01  0.000E+00  0.000E+00  0.000E+00  1.08410E+03  1.685E+00  1.985E+01  1.191E-01  1.562E+00
   1    3    4     1     4    7.3366E+01  5.1412E-01   7.2852E+01  0.000E+00  0.000E+00  0.000E+00  1.07909E+03  1.679E+00  1.980E+01  1.099E-01  1.560E+00
   1    4    5     2     1    7.0852E+01  4.0967E-01   7.0442E+01  0.000E+00  0.000E+00  0.000E+00  1.07419E+03  2.252E+00  1.200E+01  7.800E-02  1.751E+00
   1    5    6     2     2    7.0442E+01  3.1471E-01   7.0127E+01  0.000E+00  0.000E+00  0.000E+00  1.06875E+03  2.245E+00  1.200E+01  6.000E-02  1.748E+00
   1    6    6     2     3    7.0127E+01  3.1435E-01   6.9813E+01  0.000E+00  0.000E+00  0.000E+00  1.06403E+03  2.239E+00  1.200E+01  6.000E-02  1.746E+00
   1    7    6     2     4    6.9813E+01  3.1399E-01   6.9499E+01  0.000E+00  0.000E+00  0.000E+00  1.05931E+03  2.233E+00  1.200E+01  6.000E-02  1.744E+00
   1    8    6     2     5    6.9499E+01  3.1363E-01   6.9185E+01  0.000E+00  0.000E+00  0.000E+00  1.05459E+03  2.227E+00  1.200E+01  6.000E-02  1.742E+00
   1    3    5     3     1    2.0000E+00  2.8252E-01   1.7175E+00  0.000E+00  0.000E+00  0.000E+00  1.07555E+03  1.909E+00  9.636E+00  7.227E-02  1.955E+00
   1    3    6     3     2    1.7175E+00  2.4905E-01   1.4684E+00  0.000E+00  0.000E+00  0.000E+00  1.07264E+03  1.727E+00  8.909E+00  6.682E-02  1.864E+00
   1    3    7     3     3    1.4684E+00  1.9718E-01   1.2712E+00  0.000E+00  0.000E+00  0.000E+00  1.06987E+03  1.555E+00  8.218E+00  5.547E-02  1.777E+00
   1    4    8     3     4    1.2712E+00  2.2567E-01   1.0456E+00  0.000E+00  0.000E+00  0.000E+00  1.06682E+03  1.364E+00  7.455E+00  6.709E-02  1.682E+00
   1    5    8     3     5    1.0456E+00  1.5790E-01   8.8768E-01  0.000E+00  0.000E+00  0.000E+00  1.06362E+03  1.164E+00  6.655E+00  4.991E-02  1.582E+00
   1    6    8     3     6    8.8768E-01  5.5980E-02   8.3170E-01  0.000E+00  0.000E+00  0.000E+00  1.06158E+03  1.036E+00  6.145E+00  1.844E-02  1.518E+00
   1    5   10     4     1    1.0000E+01  9.0919E-02   9.9091E+00  0.000E+00  0.000E+00  0.000E+00  1.07836E+03  6.368E-01  1.000E+01  2.500E-02  1.212E+00
   1    5    9     4     2    9.9091E+00  1.8158E-01   9.7275E+00  0.000E+00  0.000E+00  0.000E+00  1.07154E+03  6.315E-01  1.000E+01  5.000E-02  1.211E+00
   1    6    8     4     3    9.7275E+00  1.2689E-01   9.6006E+00  0.000E+00  0.000E+00  0.000E+00  1.06381E+03  6.256E-01  1.000E+01  3.500E-02  1.209E+00
   1    6    8     5     1    1.0432E+01  2.2686E-01   1.0205E+01  0.000E+00  0.000E+00  0.000E+00  1.05868E+03  6.790E-01  1.542E+01  6.166E-02  1.226E+00
   1    7    7     5     2    1.0205E+01  2.7894E-01   9.9265E+00  0.000E+00  0.000E+00  0.000E+00  1.05417E+03  6.732E-01  1.519E+01  7.594E-02  1.224E+00
   1    8    7     5     3    9.9265E+00  1.9221E-01   9.7343E+00  0.000E+00  0.000E+00  0.000E+00  1.04992E+03  6.676E-01  1.497E+01  5.241E-02  1.223E+00
   1    8    6     5     4    9.7343E+00  1.3577E-01   9.5985E+00  0.000E+00  0.000E+00  0.000E+00  1.04691E+03  6.637E-01  1.482E+01  3.706E-02  1.221E+00
   1    9    6     6     1    7.8784E+01  3.2569E-01   7.8458E+01  0.000E+00  0.000E+00  0.000E+00  1.04516E+03  2.428E+00  1.200E+01  6.000E-02  1.809E+00
   1   10    7     6     2    7.8458E+01  3.2533E-01   7.8133E+01  0.000E+00  0.000E+00  0.000E+00  1.04060E+03  2.422E+00  1.200E+01  6.000E-02  1.807E+00
   1   11    7     6     3    7.8133E+01  3.2497E-01   7.7808E+01  0.000E+00  0.000E+00  0.000E+00  1.03605E+03  2.416E+00  1.200E+01  6.000E-02  1.805E+00
   1   12    7     6     4    7.7808E+01  3.2461E-01   7.7483E+01  0.000E+00  0.000E+00  0.000E+00  1.03150E+03  2.410E+00  1.200E+01  6.000E-02  1.803E+00
   1   13    7     6     5    7.7483E+01  2.5949E-02   7.7457E+01  0.000E+00  0.000E+00  0.000E+00  1.02832E+03  2.407E+00  1.200E+01  2.400E-02  3.604E-01
   1   14    9     7     1    1.5000E+02  1.3318E+00   1.4867E+02  0.000E+00  0.000E+00  0.000E+00  1.03987E+03  2.288E+00  5.529E+01  5.593E-01  7.937E-01
   1   13    8     7     2    1.4867E+02  1.8016E+00   1.4687E+02  0.000E+00  0.000E+00  0.000E+00  1.03478E+03  2.279E+00  5.526E+01  6.148E-01  9.768E-01
   1   13    7     7     3    1.4687E+02  1.3714E+00   1.4550E+02  0.000E+00  0.000E+00  0.000E+00  1.02969E+03  2.271E+00  5.522E+01  5.585E-01  8.185E-01
   1   13    6     8     1    2.2295E+02  1.0171E+00   2.2194E+02  0.000E+00  0.000E+00  0.000E+00  1.02514E+03  3.265E+00  4.735E+01  4.825E-01  7.027E-01
   1   13    5     8     2    2.2194E+02  1.9816E-01   2.2174E+02  0.000E+00  0.000E+00  0.000E+00  1.01889E+03  3.262E+00  4.730E+01  4.820E-01  1.370E-01
   1   13    4     8     3    2.2174E+02 -1.9510E+00   2.2369E+02  0.000E+00  0.000E+00  0.000E+00  1.01264E+03  3.267E+00  4.737E+01  4.827E+00 -1.347E-01
   1   13    3     8     4    2.2369E+02 -3.1055E+00   2.2679E+02  0.000E+00  0.000E+00  0.000E+00  1.00641E+03  3.281E+00  4.757E+01  4.848E+00 -2.135E-01
   1   13    2     8     5    2.2679E+02 -2.6101E+00   2.2940E+02  0.000E+00  0.000E+00  0.000E+00  1.00017E+03  3.296E+00  4.780E+01  4.871E+00 -1.786E-01
   1   13    1     8     6    2.2940E+02 -2.0413E+00   2.3144E+02  0.000E+00  0.000E+00  0.000E+00  9.95184E+02  3.309E+00  4.798E+01  2.933E+00 -2.319E-01



 UBDSV3 SAVING "           GW ET" ON UNIT  61 AT TIME STEP  5, STRESS PERIOD   8
 UBDSV3 SAVING "    UZF RECHARGE" ON UNIT  61 AT TIME STEP  5, STRESS PERIOD   8
 UBDSV3 SAVING " SURFACE LEAKAGE" ON UNIT  61 AT TIME STEP  5, STRESS PERIOD   8
 UBDSV3 SAVING "       HORT+DUNN" ON UNIT  61 AT TIME STEP  5, STRESS PERIOD   8
 UBDSV3 SAVING "  STORAGE CHANGE" ON UNIT  61 AT TIME STEP  5, STRESS PERIOD   8


UNSATURATED ZONE PACKAGE VOLUMETRIC BUDGET FOR  TIME STEP     5 STRESS PERIOD    8
  ------------------------------------------------------------------------------



     CUMULATIVE VOLUMES      L**3       RATES FOR THIS TIME STEP      L**3/T
     ------------------                 ------------------------

           IN:                                      IN:
           ---                                      ---
        INFILTRATION =   184659328.8035          INFILTRATION =          64.0074

          OUT:                                     OUT:
          ----                                     ----
              UZF ET =   164428638.5334                UZF ET =          64.1075
        UZF RECHARGE =       73224.0000          UZF RECHARGE =       0.0000E+00

            IN - OUT =    20157466.2700              IN - OUT =          -0.1001

          STORAGE:                                 STORAGE:
          --------                                 --------
      STORAGE CHANGE =    20158170.2278        STORAGE CHANGE =          -0.1001

 PERCENT DISCREPANCY IS DIFFERENCE BETWEEN IN-OUT MINUS CHANGE IN STORAGE
 DIVIDED BY THE AVERAGE OF IN AND OUT TIMES 100

 PERCENT DISCREPANCY =          -0.00     PERCENT DISCREPANCY =           0.00






 

            AG WELLS      PERIOD    8   STEP   5
 AG WELL      1   LAYER   1   ROW     6   COL     4   RATE    -9.97089    
 AG WELL      2   LAYER   1   ROW     6   COL     5   RATE    -9.95940    
 AG WELL      3   LAYER   1   ROW     7   COL     4   RATE    -9.94873    
 AG WELL      4   LAYER   1   ROW     7   COL     5   RATE    -9.94049    
 AG WELL      5   LAYER   1   ROW     8   COL     4   RATE    -9.94873    
 AG WELL      6   LAYER   1   ROW     8   COL     5   RATE    -9.83169    
 
 

        GW IRRIGATION     PERIOD    8   STEP   5
 AG WELL      1   ROW     6   COL     4   RATE     9.97089    
 AG WELL      2   ROW     6   COL     5   RATE     9.95940    
 AG WELL      3   ROW     7   COL     4   RATE     9.94873    
 AG WELL      4   ROW     7   COL     5   RATE     9.94049    
 AG WELL      5   ROW     8   COL     4   RATE     9.94873    
 AG WELL      6   ROW     8   COL     5   RATE     9.83169    
 
1
  VOLUMETRIC BUDGET FOR ENTIRE MODEL AT END OF TIME STEP    5, STRESS PERIOD   8
  ------------------------------------------------------------------------------

     CUMULATIVE VOLUMES      L**3       RATES FOR THIS TIME STEP      L**3/T
     ------------------                 ------------------------

           IN:                                      IN:
           ---                                      ---
               AG WELLS  =   113103824.0000                 AG WELLS  =          59.5999
      DIVERSION SEGMENTS =           0.0000        DIVERSION SEGMENTS =           0.0000
           GW IRRIGATION =           0.0000             GW IRRIGATION =           0.0000
           SW IRRIGATION =           0.0000             SW IRRIGATION =           0.0000
        SYSTEM LOSSES GW =           0.0000          SYSTEM LOSSES GW =           0.0000
        SYSTEM LOSSES SW =           0.0000          SYSTEM LOSSES SW =           0.0000

                TOTAL IN =   113103824.0000                  TOTAL IN =          59.5999

          OUT:                                     OUT:
          ----                                     ----
               AG WELLS  =           0.0000                 AG WELLS  =           0.0000
      DIVERSION SEGMENTS =           0.0000        DIVERSION SEGMENTS =           0.0000
           GW IRRIGATION =   113103824.0000             GW IRRIGATION =          59.5999
           SW IRRIGATION =           0.0000             SW IRRIGATION =           0.0000
        SYSTEM LOSSES GW =           0.0000          SYSTEM LOSSES GW =           0.0000
        SYSTEM LOSSES SW =           0.0000          SYSTEM LOSSES SW =           0.0000

               TOTAL OUT =   113103824.0000                 TOTAL OUT =          59.5999

                IN - OUT =           0.0000                  IN - OUT =           0.0000

     PERCENT DISCREPANCY =           0.00         PERCENT DISCREPANCY =           0.00



1
  VOLUMETRIC BUDGET FOR ENTIRE MODEL AT END OF TIME STEP    5, STRESS PERIOD   8
  ------------------------------------------------------------------------------

     CUMULATIVE VOLUMES      L**3       RATES FOR THIS TIME STEP      L**3/T
     ------------------                 ------------------------

           IN:                                      IN:
           ---                                      ---
             STORAGE     =   119902976.0000               STORAGE     =          59.3530
       CONSTANT HEAD     =           0.0000         CONSTANT HEAD     =           0.0000
     HEAD DEP BOUNDS     =     4654242.0000       HEAD DEP BOUNDS     =           0.2855
      STREAM LEAKAGE     =   208016416.0000        STREAM LEAKAGE     =          13.2632
        UZF RECHARGE     =       73223.9531          UZF RECHARGE     =           0.0000
               GW ET     =           0.0000                 GW ET     =           0.0000
     SURFACE LEAKAGE     =           0.0000       SURFACE LEAKAGE     =           0.0000
           AG WELLS      =           0.0000             AG WELLS      =           0.0000

                TOTAL IN =   332646848.0000                  TOTAL IN =          72.9017

          OUT:                                     OUT:
          ----                                     ----
             STORAGE     =    43205288.0000               STORAGE     =           1.4562
       CONSTANT HEAD     =           0.0000         CONSTANT HEAD     =           0.0000
     HEAD DEP BOUNDS     =     4805425.5000       HEAD DEP BOUNDS     =           0.2994
      STREAM LEAKAGE     =   164784160.0000        STREAM LEAKAGE     =           9.7079
        UZF RECHARGE     =           0.0000          UZF RECHARGE     =           0.0000
               GW ET     =     6751520.5000                 GW ET     =           1.8384
     SURFACE LEAKAGE     =           0.0000       SURFACE LEAKAGE     =           0.0000
           AG WELLS      =   113103824.0000             AG WELLS      =          59.5999

               TOTAL OUT =   332650240.0000                 TOTAL OUT =          72.9019

                IN - OUT =       -3392.0000                  IN - OUT =      -1.9836E-04

     PERCENT DISCREPANCY =          -0.00         PERCENT DISCREPANCY =          -0.00






         TIME SUMMARY AT END OF TIME STEP    5 IN STRESS PERIOD    8
                    SECONDS     MINUTES      HOURS       DAYS        YEARS
                    -----------------------------------------------------------
   TIME STEP LENGTH  87667.      1461.1      24.352      1.0147     2.77799E-03
 STRESS PERIOD TIME 4.38333E+05  7305.6      121.76      5.0733     1.38899E-02
         TOTAL TIME 1.63048E+07 2.71746E+05  4529.1      188.71     0.51667    
1
 
 SOLVING FOR HEAD 
                                                   Max.-Head-Change                         Max.-Flux-Residual
  Residual-Control   Outer-Iter.   Inner-Iter.     Column Row Layer    Maximum-Head-Change  Column Row Layer    Maximum-Flux-Residual          L2-NORM 
          0                 1           2             4    7     1      -0.1610095569E+00       4    7    1        -0.8431200975E+01      0.1903729871E+02
          0                 2           2             4    7     1       0.1566150452E-01       4    7    1         0.8430977597E+00      0.1903688578E+01
          0                 3           2             4    7     1      -0.1066493671E-02       4    7    1        -0.5901708003E-01      0.1332575314E+00
          0                 4           1             4    7     1       0.4243676605E-04       4    7    1         0.2413800954E-02      0.5450166693E-02

    ------------------------------------------------
       NWT REQUIRED            4 OUTER ITERATIONS 
       AND A TOTAL OF          7 INNER ITERATIONS.
    ------------------------------------------------

 NO OUTPUT CONTROL FOR STRESS PERIOD    8   TIME STEP    6
 
 SOLVING FOR HEAD 
                                                   Max.-Head-Change                         Max.-Flux-Residual
  Residual-Control   Outer-Iter.   Inner-Iter.     Column Row Layer    Maximum-Head-Change  Column Row Layer    Maximum-Flux-Residual          L2-NORM 
          0                 1           2             4    7     1      -0.1597313763E+00       4    7    1        -0.8366218578E+01      0.1878916490E+02
          0                 2           2             4    7     1       0.1553716465E-01       4    7    1         0.8365989872E+00      0.1878879759E+01
          0                 3           2             4    7     1      -0.1058026663E-02       4    7    1        -0.5856217079E-01      0.1315213170E+00
          0                 4           1             4    7     1       0.4209985561E-04       4    7    1         0.2395195125E-02      0.5379201391E-02

    ------------------------------------------------
       NWT REQUIRED            4 OUTER ITERATIONS 
       AND A TOTAL OF          7 INNER ITERATIONS.
    ------------------------------------------------

 NO OUTPUT CONTROL FOR STRESS PERIOD    8   TIME STEP    7
 
 SOLVING FOR HEAD 
                                                   Max.-Head-Change                         Max.-Flux-Residual
  Residual-Control   Outer-Iter.   Inner-Iter.     Column Row Layer    Maximum-Head-Change  Column Row Layer    Maximum-Flux-Residual          L2-NORM 
          0                 1           2             4    7     1      -0.1584289853E+00       4    7    1        -0.8299792710E+01      0.1855147889E+02
          0                 2           2             4    7     1       0.1541047113E-01       4    7    1         0.8299559588E+00      0.1855113871E+01
          0                 3           2             4    7     1      -0.1049399366E-02       4    7    1        -0.5809716277E-01      0.1298579251E+00
          0                 4           1             4    7     1       0.4175656721E-04       4    7    1         0.2376176253E-02      0.5311167617E-02

    ------------------------------------------------
       NWT REQUIRED            4 OUTER ITERATIONS 
       AND A TOTAL OF          7 INNER ITERATIONS.
    ------------------------------------------------

 NO OUTPUT CONTROL FOR STRESS PERIOD    8   TIME STEP    8
 
 SOLVING FOR HEAD 
                                                   Max.-Head-Change                         Max.-Flux-Residual
  Residual-Control   Outer-Iter.   Inner-Iter.     Column Row Layer    Maximum-Head-Change  Column Row Layer    Maximum-Flux-Residual          L2-NORM 
          0                 1           2             4    7     1      -0.1571058023E+00       4    7    1        -0.8232112579E+01      0.1832332701E+02
          0                 2           2             4    7     1       0.1528175636E-01       4    7    1         0.8231875878E+00      0.1832300446E+01
          0                 3           2             4    7     1      -0.1040634418E-02       4    7    1        -0.5762337999E-01      0.1282611116E+00
          0                 4           1             4    7     1       0.4140780150E-04       4    7    1         0.2356798490E-02      0.5245865680E-02

    ------------------------------------------------
       NWT REQUIRED            4 OUTER ITERATIONS 
       AND A TOTAL OF          7 INNER ITERATIONS.
    ------------------------------------------------

 NO OUTPUT CONTROL FOR STRESS PERIOD    8   TIME STEP    9
 
 SOLVING FOR HEAD 
                                                   Max.-Head-Change                         Max.-Flux-Residual
  Residual-Control   Outer-Iter.   Inner-Iter.     Column Row Layer    Maximum-Head-Change  Column Row Layer    Maximum-Flux-Residual          L2-NORM 
          0                 1           2             4    7     1      -0.1557648413E+00       4    7    1        -0.8163346169E+01      0.1810398840E+02
          0                 2           2             4    7     1       0.1515131211E-01       4    7    1         0.8163106655E+00      0.1810335177E+01
          0                 3           2             4    7     1      -0.1031751687E-02       4    7    1        -0.5714199788E-01      0.1267236084E+00
          0                 4           1             4    7     1       0.4105434906E-04       4    7    1         0.2337109923E-02      0.5182990176E-02

    ------------------------------------------------
       NWT REQUIRED            4 OUTER ITERATIONS 
       AND A TOTAL OF          7 INNER ITERATIONS.
    ------------------------------------------------

 OUTPUT CONTROL FOR STRESS PERIOD    8   TIME STEP   10
    PRINT BUDGET
    SAVE BUDGET
 UBDSV1 SAVING "         STORAGE" ON UNIT 102 AT TIME STEP 10, STRESS PERIOD   8
 UBDSV2 SAVING "   CONSTANT HEAD" ON UNIT 102 AT TIME STEP 10, STRESS PERIOD   8
 UBDSV1 SAVING "FLOW RIGHT FACE " ON UNIT 102 AT TIME STEP 10, STRESS PERIOD   8
 UBDSV1 SAVING "FLOW FRONT FACE " ON UNIT 102 AT TIME STEP 10, STRESS PERIOD   8

  HEAD DEP BOUNDS   PERIOD    8   STEP    10
 BOUNDARY      1   LAYER   1   ROW    13   COL     1   RATE   -0.299186    
 BOUNDARY      2   LAYER   1   ROW    14   COL     9   RATE    0.285481    



 STREAM LISTING     PERIOD      8   STEP       10

 LAYER ROW COL. STREAM  RCH.  FLOW INTO     FLOW TO   FLOW OUT OF   OVRLND.     DIRECT     STREAM       STREAM     STREAM     STREAM   STREAMBED  STREAMBED
                SEG.NO.  NO.  STRM. RCH.    AQUIFER    STRM. RCH.    RUNOFF     PRECIP       ET          HEAD       DEPTH      WIDTH   CONDCTNC.   GRADIENT

   1    1    1     1     1    7.5000E+01  4.2232E-01   7.4578E+01  0.000E+00  0.000E+00  0.000E+00  1.09475E+03  1.698E+00  1.998E+01  8.990E-02  1.566E+00
   1    2    2     1     2    7.4578E+01  6.5422E-01   7.3924E+01  0.000E+00  0.000E+00  0.000E+00  1.08975E+03  1.692E+00  1.992E+01  1.394E-01  1.564E+00
   1    3    3     1     3    7.3924E+01  5.5813E-01   7.3366E+01  0.000E+00  0.000E+00  0.000E+00  1.08410E+03  1.685E+00  1.985E+01  1.191E-01  1.562E+00
   1    3    4     1     4    7.3366E+01  5.1412E-01   7.2852E+01  0.000E+00  0.000E+00  0.000E+00  1.07909E+03  1.679E+00  1.980E+01  1.099E-01  1.560E+00
   1    4    5     2     1    7.0852E+01  4.0967E-01   7.0442E+01  0.000E+00  0.000E+00  0.000E+00  1.07419E+03  2.252E+00  1.200E+01  7.800E-02  1.751E+00
   1    5    6     2     2    7.0442E+01  3.1471E-01   7.0127E+01  0.000E+00  0.000E+00  0.000E+00  1.06875E+03  2.245E+00  1.200E+01  6.000E-02  1.748E+00
   1    6    6     2     3    7.0127E+01  3.1435E-01   6.9813E+01  0.000E+00  0.000E+00  0.000E+00  1.06403E+03  2.239E+00  1.200E+01  6.000E-02  1.746E+00
   1    7    6     2     4    6.9813E+01  3.1399E-01   6.9499E+01  0.000E+00  0.000E+00  0.000E+00  1.05931E+03  2.233E+00  1.200E+01  6.000E-02  1.744E+00
   1    8    6     2     5    6.9499E+01  3.1363E-01   6.9185E+01  0.000E+00  0.000E+00  0.000E+00  1.05459E+03  2.227E+00  1.200E+01  6.000E-02  1.742E+00
   1    3    5     3     1    2.0000E+00  2.8252E-01   1.7175E+00  0.000E+00  0.000E+00  0.000E+00  1.07555E+03  1.909E+00  9.636E+00  7.227E-02  1.955E+00
   1    3    6     3     2    1.7175E+00  2.4905E-01   1.4684E+00  0.000E+00  0.000E+00  0.000E+00  1.07264E+03  1.727E+00  8.909E+00  6.682E-02  1.864E+00
   1    3    7     3     3    1.4684E+00  1.9718E-01   1.2712E+00  0.000E+00  0.000E+00  0.000E+00  1.06987E+03  1.555E+00  8.218E+00  5.547E-02  1.777E+00
   1    4    8     3     4    1.2712E+00  2.2567E-01   1.0456E+00  0.000E+00  0.000E+00  0.000E+00  1.06682E+03  1.364E+00  7.455E+00  6.709E-02  1.682E+00
   1    5    8     3     5    1.0456E+00  1.5790E-01   8.8768E-01  0.000E+00  0.000E+00  0.000E+00  1.06362E+03  1.164E+00  6.655E+00  4.991E-02  1.582E+00
   1    6    8     3     6    8.8768E-01  5.5980E-02   8.3170E-01  0.000E+00  0.000E+00  0.000E+00  1.06158E+03  1.036E+00  6.145E+00  1.844E-02  1.518E+00
   1    5   10     4     1    1.0000E+01  9.0919E-02   9.9091E+00  0.000E+00  0.000E+00  0.000E+00  1.07836E+03  6.368E-01  1.000E+01  2.500E-02  1.212E+00
   1    5    9     4     2    9.9091E+00  1.8158E-01   9.7275E+00  0.000E+00  0.000E+00  0.000E+00  1.07154E+03  6.315E-01  1.000E+01  5.000E-02  1.211E+00
   1    6    8     4     3    9.7275E+00  1.2689E-01   9.6006E+00  0.000E+00  0.000E+00  0.000E+00  1.06381E+03  6.256E-01  1.000E+01  3.500E-02  1.209E+00
   1    6    8     5     1    1.0432E+01  2.2686E-01   1.0205E+01  0.000E+00  0.000E+00  0.000E+00  1.05868E+03  6.790E-01  1.542E+01  6.166E-02  1.226E+00
   1    7    7     5     2    1.0205E+01  2.7894E-01   9.9265E+00  0.000E+00  0.000E+00  0.000E+00  1.05417E+03  6.732E-01  1.519E+01  7.594E-02  1.224E+00
   1    8    7     5     3    9.9265E+00  1.9221E-01   9.7343E+00  0.000E+00  0.000E+00  0.000E+00  1.04992E+03  6.676E-01  1.497E+01  5.241E-02  1.223E+00
   1    8    6     5     4    9.7343E+00  1.3577E-01   9.5985E+00  0.000E+00  0.000E+00  0.000E+00  1.04691E+03  6.637E-01  1.482E+01  3.706E-02  1.221E+00
   1    9    6     6     1    7.8784E+01  3.2569E-01   7.8458E+01  0.000E+00  0.000E+00  0.000E+00  1.04516E+03  2.428E+00  1.200E+01  6.000E-02  1.809E+00
   1   10    7     6     2    7.8458E+01  3.2533E-01   7.8133E+01  0.000E+00  0.000E+00  0.000E+00  1.04060E+03  2.422E+00  1.200E+01  6.000E-02  1.807E+00
   1   11    7     6     3    7.8133E+01  3.2497E-01   7.7808E+01  0.000E+00  0.000E+00  0.000E+00  1.03605E+03  2.416E+00  1.200E+01  6.000E-02  1.805E+00
   1   12    7     6     4    7.7808E+01  3.2461E-01   7.7483E+01  0.000E+00  0.000E+00  0.000E+00  1.03150E+03  2.410E+00  1.200E+01  6.000E-02  1.803E+00
   1   13    7     6     5    7.7483E+01  2.5896E-02   7.7457E+01  0.000E+00  0.000E+00  0.000E+00  1.02832E+03  2.407E+00  1.200E+01  2.400E-02  3.597E-01
   1   14    9     7     1    1.5000E+02  1.3317E+00   1.4867E+02  0.000E+00  0.000E+00  0.000E+00  1.03987E+03  2.288E+00  5.529E+01  5.593E-01  7.937E-01
   1   13    8     7     2    1.4867E+02  1.8009E+00   1.4687E+02  0.000E+00  0.000E+00  0.000E+00  1.03478E+03  2.279E+00  5.526E+01  6.148E-01  9.765E-01
   1   13    7     7     3    1.4687E+02  1.3701E+00   1.4550E+02  0.000E+00  0.000E+00  0.000E+00  1.02969E+03  2.271E+00  5.522E+01  5.585E-01  8.178E-01
   1   13    6     8     1    2.2295E+02  1.0169E+00   2.2194E+02  0.000E+00  0.000E+00  0.000E+00  1.02514E+03  3.265E+00  4.735E+01  4.825E-01  7.025E-01
   1   13    5     8     2    2.2194E+02  1.9927E-01   2.2174E+02  0.000E+00  0.000E+00  0.000E+00  1.01889E+03  3.262E+00  4.730E+01  4.820E-01  1.378E-01
   1   13    4     8     3    2.2174E+02 -1.9221E+00   2.2366E+02  0.000E+00  0.000E+00  0.000E+00  1.01264E+03  3.267E+00  4.737E+01  4.827E+00 -1.327E-01
   1   13    3     8     4    2.2366E+02 -3.0755E+00   2.2674E+02  0.000E+00  0.000E+00  0.000E+00  1.00641E+03  3.280E+00  4.757E+01  4.847E+00 -2.115E-01
   1   13    2     8     5    2.2674E+02 -2.5697E+00   2.2931E+02  0.000E+00  0.000E+00  0.000E+00  1.00017E+03  3.296E+00  4.779E+01  4.870E+00 -1.759E-01
   1   13    1     8     6    2.2931E+02 -2.0239E+00   2.3133E+02  0.000E+00  0.000E+00  0.000E+00  9.95183E+02  3.308E+00  4.797E+01  2.933E+00 -2.300E-01



 UBDSV3 SAVING "           GW ET" ON UNIT  61 AT TIME STEP 10, STRESS PERIOD   8
 UBDSV3 SAVING "    UZF RECHARGE" ON UNIT  61 AT TIME STEP 10, STRESS PERIOD   8
 UBDSV3 SAVING " SURFACE LEAKAGE" ON UNIT  61 AT TIME STEP 10, STRESS PERIOD   8
 UBDSV3 SAVING "       HORT+DUNN" ON UNIT  61 AT TIME STEP 10, STRESS PERIOD   8
 UBDSV3 SAVING "  STORAGE CHANGE" ON UNIT  61 AT TIME STEP 10, STRESS PERIOD   8


UNSATURATED ZONE PACKAGE VOLUMETRIC BUDGET FOR  TIME STEP    10 STRESS PERIOD    8
  ------------------------------------------------------------------------------



     CUMULATIVE VOLUMES      L**3       RATES FOR THIS TIME STEP      L**3/T
     ------------------                 ------------------------

           IN:                                      IN:
           ---                                      ---
        INFILTRATION =   212718803.4001          INFILTRATION =          64.0181

          OUT:                                     OUT:
          ----                                     ----
              UZF ET =   192529091.3801                UZF ET =          64.1075
        UZF RECHARGE =       73224.0000          UZF RECHARGE =       0.0000E+00

            IN - OUT =    20116488.0200              IN - OUT =      -8.9374E-02

          STORAGE:                                 STORAGE:
          --------                                 --------
      STORAGE CHANGE =    20117191.0931        STORAGE CHANGE =      -8.9373E-02

 PERCENT DISCREPANCY IS DIFFERENCE BETWEEN IN-OUT MINUS CHANGE IN STORAGE
 DIVIDED BY THE AVERAGE OF IN AND OUT TIMES 100

 PERCENT DISCREPANCY =          -0.00     PERCENT DISCREPANCY =           0.00






 

            AG WELLS      PERIOD    8   STEP  10
 AG WELL      1   LAYER   1   ROW     6   COL     4   RATE    -9.97095    
 AG WELL      2   LAYER   1   ROW     6   COL     5   RATE    -9.95953    
 AG WELL      3   LAYER   1   ROW     7   COL     4   RATE    -9.95026    
 AG WELL      4   LAYER   1   ROW     7   COL     5   RATE    -9.94110    
 AG WELL      5   LAYER   1   ROW     8   COL     4   RATE    -9.95026    
 AG WELL      6   LAYER   1   ROW     8   COL     5   RATE    -9.83852    
 
 

        GW IRRIGATION     PERIOD    8   STEP  10
 AG WELL      1   ROW     6   COL     4   RATE     9.97095    
 AG WELL      2   ROW     6   COL     5   RATE     9.95953    
 AG WELL      3   ROW     7   COL     4   RATE     9.95026    
 AG WELL      4   ROW     7   COL     5   RATE     9.94110    
 AG WELL      5   ROW     8   COL     4   RATE     9.95026    
 AG WELL      6   ROW     8   COL     5   RATE     9.83852    
 
1
  VOLUMETRIC BUDGET FOR ENTIRE MODEL AT END OF TIME STEP   10, STRESS PERIOD   8
  ------------------------------------------------------------------------------

     CUMULATIVE VOLUMES      L**3       RATES FOR THIS TIME STEP      L**3/T
     ------------------                 ------------------------

           IN:                                      IN:
           ---                                      ---
               AG WELLS  =   139231344.0000                 AG WELLS  =          59.6106
      DIVERSION SEGMENTS =           0.0000        DIVERSION SEGMENTS =           0.0000
           GW IRRIGATION =           0.0000             GW IRRIGATION =           0.0000
           SW IRRIGATION =           0.0000             SW IRRIGATION =           0.0000
        SYSTEM LOSSES GW =           0.0000          SYSTEM LOSSES GW =           0.0000
        SYSTEM LOSSES SW =           0.0000          SYSTEM LOSSES SW =           0.0000

                TOTAL IN =   139231344.0000                  TOTAL IN =          59.6106

          OUT:                                     OUT:
          ----                                     ----
               AG WELLS  =           0.0000                 AG WELLS  =           0.0000
      DIVERSION SEGMENTS =           0.0000        DIVERSION SEGMENTS =           0.0000
           GW IRRIGATION =   139231344.0000             GW IRRIGATION =          59.6106
           SW IRRIGATION =           0.0000             SW IRRIGATION =           0.0000
        SYSTEM LOSSES GW =           0.0000          SYSTEM LOSSES GW =           0.0000
        SYSTEM LOSSES SW =           0.0000          SYSTEM LOSSES SW =           0.0000

               TOTAL OUT =   139231344.0000                 TOTAL OUT =          59.6106

                IN - OUT =           0.0000                  IN - OUT =           0.0000

     PERCENT DISCREPANCY =           0.00         PERCENT DISCREPANCY =           0.00



1
  VOLUMETRIC BUDGET FOR ENTIRE MODEL AT END OF TIME STEP   10, STRESS PERIOD   8
  ------------------------------------------------------------------------------

     CUMULATIVE VOLUMES      L**3       RATES FOR THIS TIME STEP      L**3/T
     ------------------                 ------------------------

           IN:                                      IN:
           ---                                      ---
             STORAGE     =   145789744.0000               STORAGE     =          58.9325
       CONSTANT HEAD     =           0.0000         CONSTANT HEAD     =           0.0000
     HEAD DEP BOUNDS     =     4779378.0000       HEAD DEP BOUNDS     =           0.2855
      STREAM LEAKAGE     =   213829824.0000        STREAM LEAKAGE     =          13.2621
        UZF RECHARGE     =       73223.9531          UZF RECHARGE     =           0.0000
               GW ET     =           0.0000                 GW ET     =           0.0000
     SURFACE LEAKAGE     =           0.0000       SURFACE LEAKAGE     =           0.0000
           AG WELLS      =           0.0000             AG WELLS      =           0.0000

                TOTAL IN =   364472160.0000                  TOTAL IN =          72.4801

          OUT:                                     OUT:
          ----                                     ----
             STORAGE     =    43826016.0000               STORAGE     =           1.3888
       CONSTANT HEAD     =           0.0000         CONSTANT HEAD     =           0.0000
     HEAD DEP BOUNDS     =     4936609.0000       HEAD DEP BOUNDS     =           0.2992
      STREAM LEAKAGE     =   169004512.0000        STREAM LEAKAGE     =           9.5911
        UZF RECHARGE     =           0.0000          UZF RECHARGE     =           0.0000
               GW ET     =     7477158.5000                 GW ET     =           1.5905
     SURFACE LEAKAGE     =           0.0000       SURFACE LEAKAGE     =           0.0000
           AG WELLS      =   139231344.0000             AG WELLS      =          59.6106

               TOTAL OUT =   364475648.0000                 TOTAL OUT =          72.4803

                IN - OUT =       -3488.0000                  IN - OUT =      -2.0599E-04

     PERCENT DISCREPANCY =          -0.00         PERCENT DISCREPANCY =          -0.00






         TIME SUMMARY AT END OF TIME STEP   10 IN STRESS PERIOD    8
                    SECONDS     MINUTES      HOURS       DAYS        YEARS
                    -----------------------------------------------------------
   TIME STEP LENGTH  87667.      1461.1      24.352      1.0147     2.77799E-03
 STRESS PERIOD TIME 8.76667E+05  14611.      243.52      10.147     2.77799E-02
         TOTAL TIME 1.67431E+07 2.79052E+05  4650.9      193.79     0.53056    
1
 
 SOLVING FOR HEAD 
                                                   Max.-Head-Change                         Max.-Flux-Residual
  Residual-Control   Outer-Iter.   Inner-Iter.     Column Row Layer    Maximum-Head-Change  Column Row Layer    Maximum-Flux-Residual          L2-NORM 
          0                 1           2             4    7     1      -0.1544090617E+00       4    7    1        -0.8093658131E+01      0.1789287370E+02
          0                 2           2             4    7     1       0.1501943002E-01       4    7    1         0.8093416505E+00      0.1789257278E+01
          0                 3           2             4    7     1      -0.1022771035E-02       4    7    1        -0.5665416862E-01      0.1252482038E+00
          0                 4           1             4    7     1       0.4069700035E-04       4    7    1         0.2317157664E-02      0.5122649188E-02

    ------------------------------------------------
       NWT REQUIRED            4 OUTER ITERATIONS 
       AND A TOTAL OF          7 INNER ITERATIONS.
    ------------------------------------------------

 NO OUTPUT CONTROL FOR STRESS PERIOD    8   TIME STEP   11
 
 SOLVING FOR HEAD 
                                                   Max.-Head-Change                         Max.-Flux-Residual
  Residual-Control   Outer-Iter.   Inner-Iter.     Column Row Layer    Maximum-Head-Change  Column Row Layer    Maximum-Flux-Residual          L2-NORM 
          0                 1           2             4    7     1      -0.1530412491E+00       4    7    1        -0.8023203627E+01      0.1768945779E+02
          0                 2           2             4    7     1       0.1488637709E-01       4    7    1         0.8022960527E+00      0.1768916463E+01
          0                 3           2             4    7     1      -0.1013710644E-02       4    7    1        -0.5616097794E-01      0.1238243804E+00
          0                 4           1             4    7     1       0.4033647919E-04       4    7    1         0.2296986143E-02      0.5064413405E-02

    ------------------------------------------------
       NWT REQUIRED            4 OUTER ITERATIONS 
       AND A TOTAL OF          7 INNER ITERATIONS.
    ------------------------------------------------

 NO OUTPUT CONTROL FOR STRESS PERIOD    8   TIME STEP   12
 
 SOLVING FOR HEAD 
                                                   Max.-Head-Change                         Max.-Flux-Residual
  Residual-Control   Outer-Iter.   Inner-Iter.     Column Row Layer    Maximum-Head-Change  Column Row Layer    Maximum-Flux-Residual          L2-NORM 
          0                 1           2             4    7     1      -0.1516639357E+00       4    7    1        -0.7952124424E+01      0.1749324156E+02
          0                 2           2             4    7     1       0.1475240086E-01       4    7    1         0.7951880429E+00      0.1749295516E+01
          0                 3           2             4    7     1      -0.1004587370E-02       4    7    1        -0.5566341789E-01      0.1224509259E+00
          0                 4           1             4    7     1       0.3997345539E-04       4    7    1         0.2276635887E-02      0.5008242594E-02

    ------------------------------------------------
       NWT REQUIRED            4 OUTER ITERATIONS 
       AND A TOTAL OF          7 INNER ITERATIONS.
    ------------------------------------------------

 NO OUTPUT CONTROL FOR STRESS PERIOD    8   TIME STEP   13
 
 SOLVING FOR HEAD 
                                                   Max.-Head-Change                         Max.-Flux-Residual
  Residual-Control   Outer-Iter.   Inner-Iter.     Column Row Layer    Maximum-Head-Change  Column Row Layer    Maximum-Flux-Residual          L2-NORM 
          0                 1           2             4    7     1      -0.1502793703E+00       4    7    1        -0.7880546326E+01      0.1730379427E+02
          0                 2           2             4    7     1       0.1461771997E-01       4    7    1         0.7880301963E+00      0.1730351411E+01
          0                 3           2             4    7     1      -0.9954161064E-03       4    7    1        -0.5516236878E-01      0.1211248454E+00
          0                 4           1             4    7     1       0.3960852231E-04       4    7    1         0.2256142962E-02      0.4954002322E-02

    ------------------------------------------------
       NWT REQUIRED            4 OUTER ITERATIONS 
       AND A TOTAL OF          7 INNER ITERATIONS.
    ------------------------------------------------

 NO OUTPUT CONTROL FOR STRESS PERIOD    8   TIME STEP   14
 
 SOLVING FOR HEAD 
                                                   Max.-Head-Change                         Max.-Flux-Residual
  Residual-Control   Outer-Iter.   Inner-Iter.     Column Row Layer    Maximum-Head-Change  Column Row Layer    Maximum-Flux-Residual          L2-NORM 
          0                 1           2             4    7     1      -0.1488897301E+00       4    7    1        -0.7808591368E+01      0.1712072853E+02
          0                 2           2             4    7     1       0.1448254615E-01       4    7    1         0.7808347116E+00      0.1712045422E+01
          0                 3           2             4    7     1      -0.9862112673E-03       4    7    1        -0.5465868452E-01      0.1198434270E+00
          0                 4           1             4    7     1       0.3924225283E-04       4    7    1         0.2235542230E-02      0.4901595388E-02

    ------------------------------------------------
       NWT REQUIRED            4 OUTER ITERATIONS 
       AND A TOTAL OF          7 INNER ITERATIONS.
    ------------------------------------------------

 OUTPUT CONTROL FOR STRESS PERIOD    8   TIME STEP   15
    PRINT BUDGET
    SAVE BUDGET
 UBDSV1 SAVING "         STORAGE" ON UNIT 102 AT TIME STEP 15, STRESS PERIOD   8
 UBDSV2 SAVING "   CONSTANT HEAD" ON UNIT 102 AT TIME STEP 15, STRESS PERIOD   8
 UBDSV1 SAVING "FLOW RIGHT FACE " ON UNIT 102 AT TIME STEP 15, STRESS PERIOD   8
 UBDSV1 SAVING "FLOW FRONT FACE " ON UNIT 102 AT TIME STEP 15, STRESS PERIOD   8

  HEAD DEP BOUNDS   PERIOD    8   STEP    15
 BOUNDARY      1   LAYER   1   ROW    13   COL     1   RATE   -0.298996    
 BOUNDARY      2   LAYER   1   ROW    14   COL     9   RATE    0.285478    



 STREAM LISTING     PERIOD      8   STEP       15

 LAYER ROW COL. STREAM  RCH.  FLOW INTO     FLOW TO   FLOW OUT OF   OVRLND.     DIRECT     STREAM       STREAM     STREAM     STREAM   STREAMBED  STREAMBED
                SEG.NO.  NO.  STRM. RCH.    AQUIFER    STRM. RCH.    RUNOFF     PRECIP       ET          HEAD       DEPTH      WIDTH   CONDCTNC.   GRADIENT

   1    1    1     1     1    7.4999E+01  4.2231E-01   7.4577E+01  0.000E+00  0.000E+00  0.000E+00  1.09475E+03  1.698E+00  1.998E+01  8.990E-02  1.566E+00
   1    2    2     1     2    7.4577E+01  6.5422E-01   7.3923E+01  0.000E+00  0.000E+00  0.000E+00  1.08975E+03  1.692E+00  1.992E+01  1.394E-01  1.564E+00
   1    3    3     1     3    7.3923E+01  5.5813E-01   7.3365E+01  0.000E+00  0.000E+00  0.000E+00  1.08410E+03  1.685E+00  1.985E+01  1.191E-01  1.562E+00
   1    3    4     1     4    7.3365E+01  5.1411E-01   7.2851E+01  0.000E+00  0.000E+00  0.000E+00  1.07909E+03  1.679E+00  1.980E+01  1.099E-01  1.560E+00
   1    4    5     2     1    7.0851E+01  4.0967E-01   7.0441E+01  0.000E+00  0.000E+00  0.000E+00  1.07419E+03  2.252E+00  1.200E+01  7.800E-02  1.751E+00
   1    5    6     2     2    7.0441E+01  3.1471E-01   7.0126E+01  0.000E+00  0.000E+00  0.000E+00  1.06875E+03  2.245E+00  1.200E+01  6.000E-02  1.748E+00
   1    6    6     2     3    7.0126E+01  3.1435E-01   6.9812E+01  0.000E+00  0.000E+00  0.000E+00  1.06403E+03  2.239E+00  1.200E+01  6.000E-02  1.746E+00
   1    7    6     2     4    6.9812E+01  3.1399E-01   6.9498E+01  0.000E+00  0.000E+00  0.000E+00  1.05931E+03  2.233E+00  1.200E+01  6.000E-02  1.744E+00
   1    8    6     2     5    6.9498E+01  3.1363E-01   6.9184E+01  0.000E+00  0.000E+00  0.000E+00  1.05459E+03  2.227E+00  1.200E+01  6.000E-02  1.742E+00
   1    3    5     3     1    2.0000E+00  2.8252E-01   1.7175E+00  0.000E+00  0.000E+00  0.000E+00  1.07555E+03  1.909E+00  9.636E+00  7.227E-02  1.955E+00
   1    3    6     3     2    1.7175E+00  2.4905E-01   1.4684E+00  0.000E+00  0.000E+00  0.000E+00  1.07264E+03  1.727E+00  8.909E+00  6.682E-02  1.864E+00
   1    3    7     3     3    1.4684E+00  1.9718E-01   1.2712E+00  0.000E+00  0.000E+00  0.000E+00  1.06987E+03  1.555E+00  8.218E+00  5.547E-02  1.777E+00
   1    4    8     3     4    1.2712E+00  2.2567E-01   1.0456E+00  0.000E+00  0.000E+00  0.000E+00  1.06682E+03  1.364E+00  7.455E+00  6.709E-02  1.682E+00
   1    5    8     3     5    1.0456E+00  1.5790E-01   8.8768E-01  0.000E+00  0.000E+00  0.000E+00  1.06362E+03  1.164E+00  6.655E+00  4.991E-02  1.582E+00
   1    6    8     3     6    8.8768E-01  5.5980E-02   8.3170E-01  0.000E+00  0.000E+00  0.000E+00  1.06158E+03  1.036E+00  6.145E+00  1.844E-02  1.518E+00
   1    5   10     4     1    1.0000E+01  9.0919E-02   9.9091E+00  0.000E+00  0.000E+00  0.000E+00  1.07836E+03  6.368E-01  1.000E+01  2.500E-02  1.212E+00
   1    5    9     4     2    9.9091E+00  1.8158E-01   9.7275E+00  0.000E+00  0.000E+00  0.000E+00  1.07154E+03  6.315E-01  1.000E+01  5.000E-02  1.211E+00
   1    6    8     4     3    9.7275E+00  1.2689E-01   9.6006E+00  0.000E+00  0.000E+00  0.000E+00  1.06381E+03  6.256E-01  1.000E+01  3.500E-02  1.209E+00
   1    6    8     5     1    1.0432E+01  2.2686E-01   1.0205E+01  0.000E+00  0.000E+00  0.000E+00  1.05868E+03  6.790E-01  1.542E+01  6.166E-02  1.226E+00
   1    7    7     5     2    1.0205E+01  2.7894E-01   9.9265E+00  0.000E+00  0.000E+00  0.000E+00  1.05417E+03  6.732E-01  1.519E+01  7.594E-02  1.224E+00
   1    8    7     5     3    9.9265E+00  1.9221E-01   9.7343E+00  0.000E+00  0.000E+00  0.000E+00  1.04992E+03  6.676E-01  1.497E+01  5.241E-02  1.223E+00
   1    8    6     5     4    9.7343E+00  1.3577E-01   9.5985E+00  0.000E+00  0.000E+00  0.000E+00  1.04691E+03  6.637E-01  1.482E+01  3.706E-02  1.221E+00
   1    9    6     6     1    7.8783E+01  3.2569E-01   7.8457E+01  0.000E+00  0.000E+00  0.000E+00  1.04516E+03  2.428E+00  1.200E+01  6.000E-02  1.809E+00
   1   10    7     6     2    7.8457E+01  3.2533E-01   7.8132E+01  0.000E+00  0.000E+00  0.000E+00  1.04060E+03  2.422E+00  1.200E+01  6.000E-02  1.807E+00
   1   11    7     6     3    7.8132E+01  3.2497E-01   7.7807E+01  0.000E+00  0.000E+00  0.000E+00  1.03605E+03  2.416E+00  1.200E+01  6.000E-02  1.805E+00
   1   12    7     6     4    7.7807E+01  3.2461E-01   7.7482E+01  0.000E+00  0.000E+00  0.000E+00  1.03150E+03  2.410E+00  1.200E+01  6.000E-02  1.803E+00
   1   13    7     6     5    7.7482E+01  2.5846E-02   7.7456E+01  0.000E+00  0.000E+00  0.000E+00  1.02832E+03  2.407E+00  1.200E+01  2.400E-02  3.590E-01
   1   14    9     7     1    1.5000E+02  1.3317E+00   1.4867E+02  0.000E+00  0.000E+00  0.000E+00  1.03987E+03  2.288E+00  5.529E+01  5.593E-01  7.937E-01
   1   13    8     7     2    1.4867E+02  1.8002E+00   1.4687E+02  0.000E+00  0.000E+00  0.000E+00  1.03478E+03  2.279E+00  5.526E+01  6.148E-01  9.761E-01
   1   13    7     7     3    1.4687E+02  1.3690E+00   1.4550E+02  0.000E+00  0.000E+00  0.000E+00  1.02969E+03  2.271E+00  5.522E+01  5.585E-01  8.171E-01
   1   13    6     8     1    2.2296E+02  1.0167E+00   2.2194E+02  0.000E+00  0.000E+00  0.000E+00  1.02514E+03  3.265E+00  4.735E+01  4.825E-01  7.024E-01
   1   13    5     8     2    2.2194E+02  2.0013E-01   2.2174E+02  0.000E+00  0.000E+00  0.000E+00  1.01889E+03  3.262E+00  4.730E+01  4.820E-01  1.384E-01
   1   13    4     8     3    2.2174E+02 -1.9172E+00   2.2366E+02  0.000E+00  0.000E+00  0.000E+00  1.01264E+03  3.267E+00  4.737E+01  4.827E+00 -1.324E-01
   1   13    3     8     4    2.2366E+02 -3.0702E+00   2.2673E+02  0.000E+00  0.000E+00  0.000E+00  1.00641E+03  3.280E+00  4.757E+01  4.847E+00 -2.111E-01
   1   13    2     8     5    2.2673E+02 -2.5433E+00   2.2927E+02  0.000E+00  0.000E+00  0.000E+00  1.00017E+03  3.296E+00  4.779E+01  4.870E+00 -1.741E-01
   1   13    1     8     6    2.2927E+02 -2.0098E+00   2.3128E+02  0.000E+00  0.000E+00  0.000E+00  9.95183E+02  3.308E+00  4.797E+01  2.933E+00 -2.284E-01



 UBDSV3 SAVING "           GW ET" ON UNIT  61 AT TIME STEP 15, STRESS PERIOD   8
 UBDSV3 SAVING "    UZF RECHARGE" ON UNIT  61 AT TIME STEP 15, STRESS PERIOD   8
 UBDSV3 SAVING " SURFACE LEAKAGE" ON UNIT  61 AT TIME STEP 15, STRESS PERIOD   8
 UBDSV3 SAVING "       HORT+DUNN" ON UNIT  61 AT TIME STEP 15, STRESS PERIOD   8
 UBDSV3 SAVING "  STORAGE CHANGE" ON UNIT  61 AT TIME STEP 15, STRESS PERIOD   8


UNSATURATED ZONE PACKAGE VOLUMETRIC BUDGET FOR  TIME STEP    15 STRESS PERIOD    8
  ------------------------------------------------------------------------------



     CUMULATIVE VOLUMES      L**3       RATES FOR THIS TIME STEP      L**3/T
     ------------------                 ------------------------

           IN:                                      IN:
           ---                                      ---
        INFILTRATION =   240782479.6843          INFILTRATION =          64.0270

          OUT:                                     OUT:
          ----                                     ----
              UZF ET =   220629544.2268                UZF ET =          64.1075
        UZF RECHARGE =       73224.0000          UZF RECHARGE =       0.0000E+00

            IN - OUT =    20079711.4575              IN - OUT =      -8.0459E-02

          STORAGE:                                 STORAGE:
          --------                                 --------
      STORAGE CHANGE =    20080413.7289        STORAGE CHANGE =      -8.0458E-02

 PERCENT DISCREPANCY IS DIFFERENCE BETWEEN IN-OUT MINUS CHANGE IN STORAGE
 DIVIDED BY THE AVERAGE OF IN AND OUT TIMES 100

 PERCENT DISCREPANCY =          -0.00     PERCENT DISCREPANCY =           0.00






 

            AG WELLS      PERIOD    8   STEP  15
 AG WELL      1   LAYER   1   ROW     6   COL     4   RATE    -9.97100    
 AG WELL      2   LAYER   1   ROW     6   COL     5   RATE    -9.95966    
 AG WELL      3   LAYER   1   ROW     7   COL     4   RATE    -9.95162    
 AG WELL      4   LAYER   1   ROW     7   COL     5   RATE    -9.94166    
 AG WELL      5   LAYER   1   ROW     8   COL     4   RATE    -9.95162    
 AG WELL      6   LAYER   1   ROW     8   COL     5   RATE    -9.84398    
 
 

        GW IRRIGATION     PERIOD    8   STEP  15
 AG WELL      1   ROW     6   COL     4   RATE     9.97100    
 AG WELL      2   ROW     6   COL     5   RATE     9.95966    
 AG WELL      3   ROW     7   COL     4   RATE     9.95162    
 AG WELL      4   ROW     7   COL     5   RATE     9.94166    
 AG WELL      5   ROW     8   COL     4   RATE     9.95162    
 AG WELL      6   ROW     8   COL     5   RATE     9.84398    
 
1
  VOLUMETRIC BUDGET FOR ENTIRE MODEL AT END OF TIME STEP   15, STRESS PERIOD   8
  ------------------------------------------------------------------------------

     CUMULATIVE VOLUMES      L**3       RATES FOR THIS TIME STEP      L**3/T
     ------------------                 ------------------------

           IN:                                      IN:
           ---                                      ---
               AG WELLS  =   165363056.0000                 AG WELLS  =          59.6195
      DIVERSION SEGMENTS =           0.0000        DIVERSION SEGMENTS =           0.0000
           GW IRRIGATION =           0.0000             GW IRRIGATION =           0.0000
           SW IRRIGATION =           0.0000             SW IRRIGATION =           0.0000
        SYSTEM LOSSES GW =           0.0000          SYSTEM LOSSES GW =           0.0000
        SYSTEM LOSSES SW =           0.0000          SYSTEM LOSSES SW =           0.0000

                TOTAL IN =   165363056.0000                  TOTAL IN =          59.6195

          OUT:                                     OUT:
          ----                                     ----
               AG WELLS  =           0.0000                 AG WELLS  =           0.0000
      DIVERSION SEGMENTS =           0.0000        DIVERSION SEGMENTS =           0.0000
           GW IRRIGATION =   165363056.0000             GW IRRIGATION =          59.6195
           SW IRRIGATION =           0.0000             SW IRRIGATION =           0.0000
        SYSTEM LOSSES GW =           0.0000          SYSTEM LOSSES GW =           0.0000
        SYSTEM LOSSES SW =           0.0000          SYSTEM LOSSES SW =           0.0000

               TOTAL OUT =   165363056.0000                 TOTAL OUT =          59.6195

                IN - OUT =           0.0000                  IN - OUT =           0.0000

     PERCENT DISCREPANCY =           0.00         PERCENT DISCREPANCY =           0.00



1
  VOLUMETRIC BUDGET FOR ENTIRE MODEL AT END OF TIME STEP   15, STRESS PERIOD   8
  ------------------------------------------------------------------------------

     CUMULATIVE VOLUMES      L**3       RATES FOR THIS TIME STEP      L**3/T
     ------------------                 ------------------------

           IN:                                      IN:
           ---                                      ---
             STORAGE     =   171578752.0000               STORAGE     =          58.7829
       CONSTANT HEAD     =           0.0000         CONSTANT HEAD     =           0.0000
     HEAD DEP BOUNDS     =     4904513.0000       HEAD DEP BOUNDS     =           0.2855
      STREAM LEAKAGE     =   219642688.0000        STREAM LEAKAGE     =          13.2607
        UZF RECHARGE     =       73223.9531          UZF RECHARGE     =           0.0000
               GW ET     =           0.0000                 GW ET     =           0.0000
     SURFACE LEAKAGE     =           0.0000       SURFACE LEAKAGE     =           0.0000
           AG WELLS      =           0.0000             AG WELLS      =           0.0000

                TOTAL IN =   396199168.0000                  TOTAL IN =          72.3291

          OUT:                                     OUT:
          ----                                     ----
             STORAGE     =    44416904.0000               STORAGE     =           1.3222
       CONSTANT HEAD     =           0.0000         CONSTANT HEAD     =           0.0000
     HEAD DEP BOUNDS     =     5067700.5000       HEAD DEP BOUNDS     =           0.2990
      STREAM LEAKAGE     =   173194224.0000        STREAM LEAKAGE     =           9.5405
        UZF RECHARGE     =           0.0000          UZF RECHARGE     =           0.0000
               GW ET     =     8160843.0000                 GW ET     =           1.5481
     SURFACE LEAKAGE     =           0.0000       SURFACE LEAKAGE     =           0.0000
           AG WELLS      =   165363056.0000             AG WELLS      =          59.6195

               TOTAL OUT =   396202752.0000                 TOTAL OUT =          72.3293

                IN - OUT =       -3584.0000                  IN - OUT =      -2.0599E-04

     PERCENT DISCREPANCY =          -0.00         PERCENT DISCREPANCY =          -0.00






         TIME SUMMARY AT END OF TIME STEP   15 IN STRESS PERIOD    8
                    SECONDS     MINUTES      HOURS       DAYS        YEARS
                    -----------------------------------------------------------
   TIME STEP LENGTH  87667.      1461.1      24.352      1.0147     2.77799E-03
 STRESS PERIOD TIME 1.31500E+06  21917.      365.28      15.220     4.16698E-02
         TOTAL TIME 1.71814E+07 2.86357E+05  4772.6      198.86     0.54445    
1
 
 SOLVING FOR HEAD 
                                                   Max.-Head-Change                         Max.-Flux-Residual
  Residual-Control   Outer-Iter.   Inner-Iter.     Column Row Layer    Maximum-Head-Change  Column Row Layer    Maximum-Flux-Residual          L2-NORM 
          0                 1           2             4    7     1      -0.1474971924E+00       4    7    1        -0.7736381691E+01      0.1694368151E+02
          0                 2           2             4    7     1       0.1434709112E-01       4    7    1         0.7736137978E+00      0.1694341297E+01
          0                 3           2             4    7     1      -0.9769872727E-03       4    7    1        -0.5415321982E-01      0.1186041543E+00
          0                 4           1             4    7     1       0.3887522178E-04       4    7    1         0.2214868704E-02      0.4850915213E-02

    ------------------------------------------------
       NWT REQUIRED            4 OUTER ITERATIONS 
       AND A TOTAL OF          7 INNER ITERATIONS.
    ------------------------------------------------

 NO OUTPUT CONTROL FOR STRESS PERIOD    8   TIME STEP   16
 
 SOLVING FOR HEAD 
                                                   Max.-Head-Change                         Max.-Flux-Residual
  Residual-Control   Outer-Iter.   Inner-Iter.     Column Row Layer    Maximum-Head-Change  Column Row Layer    Maximum-Flux-Residual          L2-NORM 
          0                 1           2             4    7     1      -0.1461033714E+00       4    7    1        -0.7664008168E+01      0.1677232605E+02
          0                 2           2             4    7     1       0.1421151182E-01       4    7    1         0.7663765383E+00      0.1677206301E+01
          0                 3           2             4    7     1      -0.9677548107E-03       4    7    1        -0.5364661056E-01      0.1174047015E+00
          0                 4           1             4    7     1       0.3850785318E-04       4    7    1         0.2194148353E-02      0.4801853856E-02

    ------------------------------------------------
       NWT REQUIRED            4 OUTER ITERATIONS 
       AND A TOTAL OF          7 INNER ITERATIONS.
    ------------------------------------------------

 NO OUTPUT CONTROL FOR STRESS PERIOD    8   TIME STEP   17
 
 SOLVING FOR HEAD 
                                                   Max.-Head-Change                         Max.-Flux-Residual
  Residual-Control   Outer-Iter.   Inner-Iter.     Column Row Layer    Maximum-Head-Change  Column Row Layer    Maximum-Flux-Residual          L2-NORM 
          0                 1           2             4    7     1      -0.1447103846E+00       4    7    1        -0.7591589279E+01      0.1660636281E+02
          0                 2           2             4    7     1       0.1407601417E-01       4    7    1         0.7591347769E+00      0.1660610519E+01
          0                 3           2             4    7     1      -0.9585279039E-03       4    7    1        -0.5313968584E-01      0.1162429978E+00
          0                 4           1             4    7     1       0.3814070631E-04       4    7    1         0.2173415125E-02      0.4754339120E-02

    ------------------------------------------------
       NWT REQUIRED            4 OUTER ITERATIONS 
       AND A TOTAL OF          7 INNER ITERATIONS.
    ------------------------------------------------

 NO OUTPUT CONTROL FOR STRESS PERIOD    8   TIME STEP   18
 
 SOLVING FOR HEAD 
                                                   Max.-Head-Change                         Max.-Flux-Residual
  Residual-Control   Outer-Iter.   Inner-Iter.     Column Row Layer    Maximum-Head-Change  Column Row Layer    Maximum-Flux-Residual          L2-NORM 
          0                 1           2             4    7     1      -0.1433193932E+00       4    7    1        -0.7519191747E+01      0.1644549256E+02
          0                 2           2             4    7     1       0.1394071108E-01       4    7    1         0.7518951823E+00      0.1644524028E+01
          0                 3           2             4    7     1      -0.9493142408E-03       4    7    1        -0.5263291247E-01      0.1151169438E+00
          0                 4           1             4    7     1       0.3777408615E-04       4    7    1         0.2152688060E-02      0.4708283282E-02

    ------------------------------------------------
       NWT REQUIRED            4 OUTER ITERATIONS 
       AND A TOTAL OF          7 INNER ITERATIONS.
    ------------------------------------------------

 NO OUTPUT CONTROL FOR STRESS PERIOD    8   TIME STEP   19
 
 SOLVING FOR HEAD 
                                                   Max.-Head-Change                         Max.-Flux-Residual
  Residual-Control   Outer-Iter.   Inner-Iter.     Column Row Layer    Maximum-Head-Change  Column Row Layer    Maximum-Flux-Residual          L2-NORM 
          0                 1           2             4    7     1      -0.1419321435E+00       4    7    1        -0.7446913418E+01      0.1628947221E+02
          0                 2           2             4    7     1       0.1380577235E-01       4    7    1         0.7446675358E+00      0.1628922512E+01
          0                 3           2             4    7     1      -0.9401253862E-03       4    7    1        -0.5212697525E-01      0.1140248358E+00
          0                 4           1             4    7     1       0.3740845332E-04       4    7    1         0.2131995221E-02      0.4663618886E-02

    ------------------------------------------------
       NWT REQUIRED            4 OUTER ITERATIONS 
       AND A TOTAL OF          7 INNER ITERATIONS.
    ------------------------------------------------

 NO OUTPUT CONTROL FOR STRESS PERIOD    8   TIME STEP   20
 
 SOLVING FOR HEAD 
                                                   Max.-Head-Change                         Max.-Flux-Residual
  Residual-Control   Outer-Iter.   Inner-Iter.     Column Row Layer    Maximum-Head-Change  Column Row Layer    Maximum-Flux-Residual          L2-NORM 
          0                 1           2             4    7     1      -0.1405498192E+00       4    7    1        -0.7374821875E+01      0.1613804543E+02
          0                 2           2             4    7     1       0.1367131310E-01       4    7    1         0.7374585925E+00      0.1613780353E+01
          0                 3           2             4    7     1      -0.9309691779E-03       4    7    1        -0.5162234700E-01      0.1129648847E+00
          0                 4           1             4    7     1       0.3704411925E-04       4    7    1         0.2111355903E-02      0.4620268397E-02

    ------------------------------------------------
       NWT REQUIRED            4 OUTER ITERATIONS 
       AND A TOTAL OF          7 INNER ITERATIONS.
    ------------------------------------------------

 NO OUTPUT CONTROL FOR STRESS PERIOD    8   TIME STEP   21
 
 SOLVING FOR HEAD 
                                                   Max.-Head-Change                         Max.-Flux-Residual
  Residual-Control   Outer-Iter.   Inner-Iter.     Column Row Layer    Maximum-Head-Change  Column Row Layer    Maximum-Flux-Residual          L2-NORM 
          0                 1           2             4    7     1      -0.1391736317E+00       4    7    1        -0.7302985835E+01      0.1599099779E+02
          0                 2           2             4    7     1       0.1353745110E-01       4    7    1         0.7302752212E+00      0.1599076093E+01
          0                 3           2             4    7     1      -0.9218536376E-03       4    7    1        -0.5111950860E-01      0.1119355830E+00
          0                 4           1             4    7     1       0.3668140319E-04       4    7    1         0.2090789779E-02      0.4578170614E-02

    ------------------------------------------------
       NWT REQUIRED            4 OUTER ITERATIONS 
       AND A TOTAL OF          7 INNER ITERATIONS.
    ------------------------------------------------

 NO OUTPUT CONTROL FOR STRESS PERIOD    8   TIME STEP   22
 
 SOLVING FOR HEAD 
                                                   Max.-Head-Change                         Max.-Flux-Residual
  Residual-Control   Outer-Iter.   Inner-Iter.     Column Row Layer    Maximum-Head-Change  Column Row Layer    Maximum-Flux-Residual          L2-NORM 
          0                 1           2             4    7     1      -0.1378048187E+00       4    7    1        -0.7231475427E+01      0.1584811670E+02
          0                 2           2             4    7     1       0.1340430672E-01       4    7    1         0.7231244322E+00      0.1584788483E+01
          0                 3           2             4    7     1      -0.9127869622E-03       4    7    1        -0.5061895077E-01      0.1109354487E+00
          0                 4           1             4    7     1       0.3632063243E-04       4    7    1         0.2070316962E-02      0.4537262819E-02

    ------------------------------------------------
       NWT REQUIRED            4 OUTER ITERATIONS 
       AND A TOTAL OF          7 INNER ITERATIONS.
    ------------------------------------------------

 NO OUTPUT CONTROL FOR STRESS PERIOD    8   TIME STEP   23
 
 SOLVING FOR HEAD 
                                                   Max.-Head-Change                         Max.-Flux-Residual
  Residual-Control   Outer-Iter.   Inner-Iter.     Column Row Layer    Maximum-Head-Change  Column Row Layer    Maximum-Flux-Residual          L2-NORM 
          0                 1           2             4    7     1      -0.1364443754E+00       4    7    1        -0.7160347502E+01      0.1570921600E+02
          0                 2           2             4    7     1       0.1327197672E-01       4    7    1         0.7160119081E+00      0.1570898900E+01
          0                 3           2             4    7     1      -0.9037757404E-03       4    7    1        -0.5012107133E-01      0.1099631739E+00
          0                 4           1             4    7     1       0.3596206775E-04       4    7    1         0.2049953682E-02      0.4497500733E-02

    ------------------------------------------------
       NWT REQUIRED            4 OUTER ITERATIONS 
       AND A TOTAL OF          7 INNER ITERATIONS.
    ------------------------------------------------

 NO OUTPUT CONTROL FOR STRESS PERIOD    8   TIME STEP   24
 
 SOLVING FOR HEAD 
                                                   Max.-Head-Change                         Max.-Flux-Residual
  Residual-Control   Outer-Iter.   Inner-Iter.     Column Row Layer    Maximum-Head-Change  Column Row Layer    Maximum-Flux-Residual          L2-NORM 
          0                 1           2             4    7     1      -0.1350930873E+00       4    7    1        -0.7089647289E+01      0.1557410306E+02
          0                 2           2             4    7     1       0.1314053749E-01       4    7    1         0.7089421699E+00      0.1557388087E+01
          0                 3           2             4    7     1      -0.8948251741E-03       4    7    1        -0.4962618677E-01      0.1090174159E+00
          0                 4           1             4    7     1       0.3560591568E-04       4    7    1         0.2029712858E-02      0.4458817712E-02

    ------------------------------------------------
       NWT REQUIRED            4 OUTER ITERATIONS 
       AND A TOTAL OF          7 INNER ITERATIONS.
    ------------------------------------------------

 NO OUTPUT CONTROL FOR STRESS PERIOD    8   TIME STEP   25
 
 SOLVING FOR HEAD 
                                                   Max.-Head-Change                         Max.-Flux-Residual
  Residual-Control   Outer-Iter.   Inner-Iter.     Column Row Layer    Maximum-Head-Change  Column Row Layer    Maximum-Flux-Residual          L2-NORM 
          0                 1           2             4    7     1      -0.1337519030E+00       4    7    1        -0.7019429208E+01      0.1544261346E+02
          0                 2           2             4    7     1       0.1301008126E-01       4    7    1         0.7019206572E+00      0.1544239597E+01
          0                 3           2             4    7     1      -0.8859415455E-03       4    7    1        -0.4913467788E-01      0.1080970105E+00
          0                 4           1             4    7     1       0.3525242859E-04       4    7    1         0.2009610145E-02      0.4421170924E-02

    ------------------------------------------------
       NWT REQUIRED            4 OUTER ITERATIONS 
       AND A TOTAL OF          7 INNER ITERATIONS.
    ------------------------------------------------

 NO OUTPUT CONTROL FOR STRESS PERIOD    8   TIME STEP   26
 
 SOLVING FOR HEAD 
                                                   Max.-Head-Change                         Max.-Flux-Residual
  Residual-Control   Outer-Iter.   Inner-Iter.     Column Row Layer    Maximum-Head-Change  Column Row Layer    Maximum-Flux-Residual          L2-NORM 
          0                 1           2             4    7     1      -0.1324215362E+00       4    7    1        -0.6949734165E+01      0.1531458926E+02
          0                 2           2             4    7     1       0.1288067744E-01       4    7    1         0.6949514589E+00      0.1531437637E+01
          0                 3           2             4    7     1      -0.8771295802E-03       4    7    1        -0.4864683089E-01      0.1072008740E+00
          0                 4           1             4    7     1       0.3490179251E-04       4    7    1         0.1989657199E-02      0.4384520891E-02

    ------------------------------------------------
       NWT REQUIRED            4 OUTER ITERATIONS 
       AND A TOTAL OF          7 INNER ITERATIONS.
    ------------------------------------------------

 NO OUTPUT CONTROL FOR STRESS PERIOD    8   TIME STEP   27
 
 SOLVING FOR HEAD 
                                                   Max.-Head-Change                         Max.-Flux-Residual
  Residual-Control   Outer-Iter.   Inner-Iter.     Column Row Layer    Maximum-Head-Change  Column Row Layer    Maximum-Flux-Residual          L2-NORM 
          0                 1           2             4    7     1      -0.1311026595E+00       4    7    1        -0.6880601078E+01      0.1518988986E+02
          0                 2           2             4    7     1       0.1275239141E-01       4    7    1         0.6880384652E+00      0.1518968149E+01
          0                 3           2             4    7     1      -0.8683937307E-03       4    7    1        -0.4816291813E-01      0.1063280081E+00
          0                 4           1             4    7     1       0.3455418464E-04       4    7    1         0.1969865124E-02      0.4348820653E-02

    ------------------------------------------------
       NWT REQUIRED            4 OUTER ITERATIONS 
       AND A TOTAL OF          7 INNER ITERATIONS.
    ------------------------------------------------

 NO OUTPUT CONTROL FOR STRESS PERIOD    8   TIME STEP   28
 
 SOLVING FOR HEAD 
                                                   Max.-Head-Change                         Max.-Flux-Residual
  Residual-Control   Outer-Iter.   Inner-Iter.     Column Row Layer    Maximum-Head-Change  Column Row Layer    Maximum-Flux-Residual          L2-NORM 
          0                 1           2             4    7     1      -0.1297959827E+00       4    7    1        -0.6812071169E+01      0.1506836087E+02
          0                 2           2             4    7     1       0.1262529221E-01       4    7    1         0.6811857965E+00      0.1506815695E+01
          0                 3           2             4    7     1      -0.8597386990E-03       4    7    1        -0.4768322807E-01      0.1054773316E+00
          0                 4           1             4    7     1       0.3420979355E-04       4    7    1         0.1950245804E-02      0.4314026010E-02

    ------------------------------------------------
       NWT REQUIRED            4 OUTER ITERATIONS 
       AND A TOTAL OF          7 INNER ITERATIONS.
    ------------------------------------------------

 NO OUTPUT CONTROL FOR STRESS PERIOD    8   TIME STEP   29
 
 SOLVING FOR HEAD 
                                                   Max.-Head-Change                         Max.-Flux-Residual
  Residual-Control   Outer-Iter.   Inner-Iter.     Column Row Layer    Maximum-Head-Change  Column Row Layer    Maximum-Flux-Residual          L2-NORM 
          0                 1           2             4    7     1      -0.1285018829E+00       4    7    1        -0.6744166620E+01      0.1494988788E+02
          0                 2           2             4    7     1       0.1249941649E-01       4    7    1         0.6743956699E+00      0.1494968670E+01
          0                 3           2             4    7     1      -0.8511669817E-03       4    7    1        -0.4720791590E-01      0.1046480349E+00
          0                 4           1             4    7     1       0.3386871710E-04       4    7    1         0.1930805535E-02      0.4280108880E-02

    ------------------------------------------------
       NWT REQUIRED            4 OUTER ITERATIONS 
       AND A TOTAL OF          7 INNER ITERATIONS.
    ------------------------------------------------

 NO OUTPUT CONTROL FOR STRESS PERIOD    8   TIME STEP   30



 STREAM LISTING     PERIOD      8   STEP       30

 LAYER ROW COL. STREAM  RCH.  FLOW INTO     FLOW TO   FLOW OUT OF   OVRLND.     DIRECT     STREAM       STREAM     STREAM     STREAM   STREAMBED  STREAMBED
                SEG.NO.  NO.  STRM. RCH.    AQUIFER    STRM. RCH.    RUNOFF     PRECIP       ET          HEAD       DEPTH      WIDTH   CONDCTNC.   GRADIENT

   1    1    1     1     1    7.4999E+01  4.2231E-01   7.4577E+01  0.000E+00  0.000E+00  0.000E+00  1.09475E+03  1.698E+00  1.998E+01  8.990E-02  1.566E+00
   1    2    2     1     2    7.4577E+01  6.5422E-01   7.3923E+01  0.000E+00  0.000E+00  0.000E+00  1.08975E+03  1.692E+00  1.992E+01  1.394E-01  1.564E+00
   1    3    3     1     3    7.3923E+01  5.5813E-01   7.3365E+01  0.000E+00  0.000E+00  0.000E+00  1.08410E+03  1.685E+00  1.985E+01  1.191E-01  1.562E+00
   1    3    4     1     4    7.3365E+01  5.1411E-01   7.2851E+01  0.000E+00  0.000E+00  0.000E+00  1.07909E+03  1.679E+00  1.980E+01  1.099E-01  1.560E+00
   1    4    5     2     1    7.0851E+01  4.0967E-01   7.0441E+01  0.000E+00  0.000E+00  0.000E+00  1.07419E+03  2.252E+00  1.200E+01  7.800E-02  1.751E+00
   1    5    6     2     2    7.0441E+01  3.1471E-01   7.0126E+01  0.000E+00  0.000E+00  0.000E+00  1.06875E+03  2.245E+00  1.200E+01  6.000E-02  1.748E+00
   1    6    6     2     3    7.0126E+01  3.1435E-01   6.9812E+01  0.000E+00  0.000E+00  0.000E+00  1.06403E+03  2.239E+00  1.200E+01  6.000E-02  1.746E+00
   1    7    6     2     4    6.9812E+01  3.1399E-01   6.9498E+01  0.000E+00  0.000E+00  0.000E+00  1.05931E+03  2.233E+00  1.200E+01  6.000E-02  1.744E+00
   1    8    6     2     5    6.9498E+01  3.1363E-01   6.9184E+01  0.000E+00  0.000E+00  0.000E+00  1.05459E+03  2.227E+00  1.200E+01  6.000E-02  1.742E+00
   1    3    5     3     1    2.0000E+00  2.8252E-01   1.7175E+00  0.000E+00  0.000E+00  0.000E+00  1.07555E+03  1.909E+00  9.636E+00  7.227E-02  1.955E+00
   1    3    6     3     2    1.7175E+00  2.4905E-01   1.4684E+00  0.000E+00  0.000E+00  0.000E+00  1.07264E+03  1.727E+00  8.909E+00  6.682E-02  1.864E+00
   1    3    7     3     3    1.4684E+00  1.9718E-01   1.2712E+00  0.000E+00  0.000E+00  0.000E+00  1.06987E+03  1.555E+00  8.218E+00  5.547E-02  1.777E+00
   1    4    8     3     4    1.2712E+00  2.2567E-01   1.0456E+00  0.000E+00  0.000E+00  0.000E+00  1.06682E+03  1.364E+00  7.455E+00  6.709E-02  1.682E+00
   1    5    8     3     5    1.0456E+00  1.5790E-01   8.8768E-01  0.000E+00  0.000E+00  0.000E+00  1.06362E+03  1.164E+00  6.655E+00  4.991E-02  1.582E+00
   1    6    8     3     6    8.8768E-01  5.5980E-02   8.3170E-01  0.000E+00  0.000E+00  0.000E+00  1.06158E+03  1.036E+00  6.145E+00  1.844E-02  1.518E+00
   1    5   10     4     1    1.0000E+01  9.0919E-02   9.9091E+00  0.000E+00  0.000E+00  0.000E+00  1.07836E+03  6.368E-01  1.000E+01  2.500E-02  1.212E+00
   1    5    9     4     2    9.9091E+00  1.8158E-01   9.7275E+00  0.000E+00  0.000E+00  0.000E+00  1.07154E+03  6.315E-01  1.000E+01  5.000E-02  1.211E+00
   1    6    8     4     3    9.7275E+00  1.2689E-01   9.6006E+00  0.000E+00  0.000E+00  0.000E+00  1.06381E+03  6.256E-01  1.000E+01  3.500E-02  1.209E+00
   1    6    8     5     1    1.0432E+01  2.2686E-01   1.0205E+01  0.000E+00  0.000E+00  0.000E+00  1.05868E+03  6.790E-01  1.542E+01  6.166E-02  1.226E+00
   1    7    7     5     2    1.0205E+01  2.7894E-01   9.9265E+00  0.000E+00  0.000E+00  0.000E+00  1.05417E+03  6.732E-01  1.519E+01  7.594E-02  1.224E+00
   1    8    7     5     3    9.9265E+00  1.9221E-01   9.7343E+00  0.000E+00  0.000E+00  0.000E+00  1.04992E+03  6.676E-01  1.497E+01  5.241E-02  1.223E+00
   1    8    6     5     4    9.7343E+00  1.3577E-01   9.5985E+00  0.000E+00  0.000E+00  0.000E+00  1.04691E+03  6.637E-01  1.482E+01  3.706E-02  1.221E+00
   1    9    6     6     1    7.8783E+01  3.2569E-01   7.8457E+01  0.000E+00  0.000E+00  0.000E+00  1.04516E+03  2.428E+00  1.200E+01  6.000E-02  1.809E+00
   1   10    7     6     2    7.8457E+01  3.2533E-01   7.8132E+01  0.000E+00  0.000E+00  0.000E+00  1.04060E+03  2.422E+00  1.200E+01  6.000E-02  1.807E+00
   1   11    7     6     3    7.8132E+01  3.2497E-01   7.7807E+01  0.000E+00  0.000E+00  0.000E+00  1.03605E+03  2.416E+00  1.200E+01  6.000E-02  1.805E+00
   1   12    7     6     4    7.7807E+01  3.2461E-01   7.7482E+01  0.000E+00  0.000E+00  0.000E+00  1.03150E+03  2.410E+00  1.200E+01  6.000E-02  1.803E+00
   1   13    7     6     5    7.7482E+01  2.5719E-02   7.7457E+01  0.000E+00  0.000E+00  0.000E+00  1.02832E+03  2.407E+00  1.200E+01  2.400E-02  3.572E-01
   1   14    9     7     1    1.5000E+02  1.3316E+00   1.4867E+02  0.000E+00  0.000E+00  0.000E+00  1.03987E+03  2.288E+00  5.529E+01  5.593E-01  7.936E-01
   1   13    8     7     2    1.4867E+02  1.7983E+00   1.4687E+02  0.000E+00  0.000E+00  0.000E+00  1.03478E+03  2.279E+00  5.526E+01  6.148E-01  9.751E-01
   1   13    7     7     3    1.4687E+02  1.3660E+00   1.4550E+02  0.000E+00  0.000E+00  0.000E+00  1.02969E+03  2.271E+00  5.522E+01  5.585E-01  8.153E-01
   1   13    6     8     1    2.2296E+02  1.0157E+00   2.2194E+02  0.000E+00  0.000E+00  0.000E+00  1.02514E+03  3.265E+00  4.735E+01  4.825E-01  7.017E-01
   1   13    5     8     2    2.2194E+02  2.0162E-01   2.2174E+02  0.000E+00  0.000E+00  0.000E+00  1.01889E+03  3.262E+00  4.730E+01  4.820E-01  1.394E-01
   1   13    4     8     3    2.2174E+02 -1.9151E+00   2.2366E+02  0.000E+00  0.000E+00  0.000E+00  1.01264E+03  3.267E+00  4.737E+01  4.827E+00 -1.322E-01
   1   13    3     8     4    2.2366E+02 -3.0680E+00   2.2673E+02  0.000E+00  0.000E+00  0.000E+00  1.00641E+03  3.280E+00  4.757E+01  4.847E+00 -2.110E-01
   1   13    2     8     5    2.2673E+02 -2.5090E+00   2.2924E+02  0.000E+00  0.000E+00  0.000E+00  1.00017E+03  3.296E+00  4.779E+01  4.870E+00 -1.717E-01
   1   13    1     8     6    2.2924E+02 -1.9837E+00   2.3122E+02  0.000E+00  0.000E+00  0.000E+00  9.95183E+02  3.308E+00  4.796E+01  2.933E+00 -2.255E-01





UNSATURATED ZONE PACKAGE VOLUMETRIC BUDGET FOR  TIME STEP    30 STRESS PERIOD    8
  ------------------------------------------------------------------------------



     CUMULATIVE VOLUMES      L**3       RATES FOR THIS TIME STEP      L**3/T
     ------------------                 ------------------------

           IN:                                      IN:
           ---                                      ---
        INFILTRATION =   324992791.1619          INFILTRATION =          64.0467

          OUT:                                     OUT:
          ----                                     ----
              UZF ET =   304930902.7668                UZF ET =          64.1075
        UZF RECHARGE =       73224.0000          UZF RECHARGE =       0.0000E+00

            IN - OUT =    19988664.3950              IN - OUT =      -6.0771E-02

          STORAGE:                                 STORAGE:
          --------                                 --------
      STORAGE CHANGE =    19989364.7233        STORAGE CHANGE =      -6.0771E-02

 PERCENT DISCREPANCY IS DIFFERENCE BETWEEN IN-OUT MINUS CHANGE IN STORAGE
 DIVIDED BY THE AVERAGE OF IN AND OUT TIMES 100

 PERCENT DISCREPANCY =          -0.00     PERCENT DISCREPANCY =           0.00






1
  VOLUMETRIC BUDGET FOR ENTIRE MODEL AT END OF TIME STEP   30, STRESS PERIOD   8
  ------------------------------------------------------------------------------

     CUMULATIVE VOLUMES      L**3       RATES FOR THIS TIME STEP      L**3/T
     ------------------                 ------------------------

           IN:                                      IN:
           ---                                      ---
               AG WELLS  =   243777488.0000                 AG WELLS  =          59.6392
      DIVERSION SEGMENTS =           0.0000        DIVERSION SEGMENTS =           0.0000
           GW IRRIGATION =           0.0000             GW IRRIGATION =           0.0000
           SW IRRIGATION =           0.0000             SW IRRIGATION =           0.0000
        SYSTEM LOSSES GW =           0.0000          SYSTEM LOSSES GW =           0.0000
        SYSTEM LOSSES SW =           0.0000          SYSTEM LOSSES SW =           0.0000

                TOTAL IN =   243777488.0000                  TOTAL IN =          59.6392

          OUT:                                     OUT:
          ----                                     ----
               AG WELLS  =           0.0000                 AG WELLS  =           0.0000
      DIVERSION SEGMENTS =           0.0000        DIVERSION SEGMENTS =           0.0000
           GW IRRIGATION =   243777488.0000             GW IRRIGATION =          59.6392
           SW IRRIGATION =           0.0000             SW IRRIGATION =           0.0000
        SYSTEM LOSSES GW =           0.0000          SYSTEM LOSSES GW =           0.0000
        SYSTEM LOSSES SW =           0.0000          SYSTEM LOSSES SW =           0.0000

               TOTAL OUT =   243777488.0000                 TOTAL OUT =          59.6392

                IN - OUT =           0.0000                  IN - OUT =           0.0000

     PERCENT DISCREPANCY =           0.00         PERCENT DISCREPANCY =           0.00



1
  VOLUMETRIC BUDGET FOR ENTIRE MODEL AT END OF TIME STEP   30, STRESS PERIOD   8
  ------------------------------------------------------------------------------

     CUMULATIVE VOLUMES      L**3       RATES FOR THIS TIME STEP      L**3/T
     ------------------                 ------------------------

           IN:                                      IN:
           ---                                      ---
             STORAGE     =   248708432.0000               STORAGE     =          58.5683
       CONSTANT HEAD     =           0.0000         CONSTANT HEAD     =           0.0000
     HEAD DEP BOUNDS     =     5279910.5000       HEAD DEP BOUNDS     =           0.2855
      STREAM LEAKAGE     =   237077408.0000        STREAM LEAKAGE     =          13.2562
        UZF RECHARGE     =       73223.9531          UZF RECHARGE     =           0.0000
               GW ET     =           0.0000                 GW ET     =           0.0000
     SURFACE LEAKAGE     =           0.0000       SURFACE LEAKAGE     =           0.0000
           AG WELLS      =           0.0000             AG WELLS      =           0.0000

                TOTAL IN =   491138944.0000                  TOTAL IN =          72.1100

          OUT:                                     OUT:
          ----                                     ----
             STORAGE     =    46037208.0000               STORAGE     =           1.1657
       CONSTANT HEAD     =           0.0000         CONSTANT HEAD     =           0.0000
     HEAD DEP BOUNDS     =     5460608.0000       HEAD DEP BOUNDS     =           0.2987
      STREAM LEAKAGE     =   185686592.0000        STREAM LEAKAGE     =           9.4758
        UZF RECHARGE     =           0.0000          UZF RECHARGE     =           0.0000
               GW ET     =    10180931.0000                 GW ET     =           1.5308
     SURFACE LEAKAGE     =           0.0000       SURFACE LEAKAGE     =           0.0000
           AG WELLS      =   243777488.0000             AG WELLS      =          59.6392

               TOTAL OUT =   491142848.0000                 TOTAL OUT =          72.1102

                IN - OUT =       -3904.0000                  IN - OUT =      -1.9836E-04

     PERCENT DISCREPANCY =          -0.00         PERCENT DISCREPANCY =          -0.00






         TIME SUMMARY AT END OF TIME STEP   30 IN STRESS PERIOD    8
                    SECONDS     MINUTES      HOURS       DAYS        YEARS
                    -----------------------------------------------------------
   TIME STEP LENGTH  87667.      1461.1      24.352      1.0147     2.77799E-03
 STRESS PERIOD TIME 2.63000E+06  43833.      730.56      30.440     8.33397E-02
         TOTAL TIME 1.84964E+07 3.08274E+05  5137.9      214.08     0.58612    
1
1
                            STRESS PERIOD NO.    9, LENGTH =   2630000.    
                            -----------------------------------------------

                              NUMBER OF TIME STEPS =    30

                               MULTIPLIER FOR DELT =     1.000

                            INITIAL TIME STEP SIZE =   87666.66    

 REUSING NON-PARAMETER GHB CELLS FROM LAST STRESS PERIOD

      2 GHB CELLS

 REUSING STREAM SEGMENT DATA FROM LAST STRESS PERIOD



            AREAL INFILTRATION RATE
 READING ON UNIT   19 WITH FORMAT: (10F4.0)            

            1           2           3           4           5           6           7           8           9          10
 ........................................................................................................................
   1   1.2000E-09   0.000       0.000       0.000       0.000       0.000       0.000       0.000       0.000       0.000    
   2   2.1000E-09  2.0000E-09  8.0000E-10  8.5000E-09   0.000       0.000       0.000       0.000       0.000       0.000    
   3   5.0000E-10  1.1000E-09  8.8000E-09  5.5000E-09   0.000       0.000       0.000       0.000       0.000       0.000    
   4   8.5000E-09  1.1000E-09  1.1000E-09  1.1000E-09  2.0000E-09   0.000       0.000       0.000       0.000       0.000    
   5   8.5000E-09  1.1000E-09  1.1000E-09  1.1000E-09  1.1000E-09   0.000       0.000       0.000       0.000       0.000    
   6   8.5000E-09  5.2000E-09  2.1000E-09  1.1000E-09  1.5000E-09   0.000       0.000       0.000       0.000       0.000    
   7   8.5000E-09  5.2000E-09  2.1000E-09  1.2000E-09  2.0000E-09   0.000       0.000       0.000       0.000       0.000    
   8   5.0000E-10  5.2000E-09  2.1000E-09  1.2000E-09  5.0000E-09   0.000       0.000       0.000       0.000       0.000    
   9   5.0000E-10  5.2000E-09  2.1000E-09  1.2000E-09  5.0000E-09   0.000       0.000       0.000       0.000       0.000    
  10   5.0000E-10  5.2000E-09  2.1000E-09  1.2000E-09  5.8000E-09   0.000       0.000       0.000       0.000       0.000    
  11   1.0000E-10  1.1000E-09  1.1000E-09  1.2000E-09  5.0000E-09   0.000       0.000       0.000       0.000       0.000    
  12   1.1000E-09  1.1000E-09  1.1000E-09  1.1000E-09  2.0000E-09   0.000       0.000       0.000       0.000       0.000    
  13   1.1000E-09  2.2000E-09  2.2000E-09  2.1000E-09  1.0000E-09   0.000       0.000       0.000       0.000       0.000    
  14   2.0000E-10  5.5000E-09  5.5000E-09  5.2000E-09  1.0000E-09   0.000       0.000       0.000       0.000       0.000    
  15    0.000      8.8000E-09  8.8000E-09   0.000       0.000       0.000       0.000       0.000       0.000       0.000    

                  ET RATE =  3.250000E-07

 USING ET EXTINCTION DEPTH FROM PREVIOUS STRESS PERIOD. CURRENT PERIOD IS:       9

 USING EXTINCTION WATER CONTENT FROM PREVIOUS STRESS PERIOD. CURRENT PERIOD IS:       9

 USING AIR ENTRY PRESSURE FROM PREVIOUS STRESS PERIOD. CURRENT PERIOD IS:       9

 USING ROOT PRESSURE HEAD FROM PREVIOUS STRESS PERIOD. CURRENT PERIOD IS:       9

 USING ROOT ACTIVITY FROM PREVIOUS STRESS PERIOD. CURRENT PERIOD IS:       9

 PROCESSING AG STRESS PERIOD DATA

 READING AG STRESS PERIOD DATA

 READING IRRIGATION WELL

 END PROCESSING AG STRESS PERIOD DATA OPTIONS
 
 SOLVING FOR HEAD 
                                                   Max.-Head-Change                         Max.-Flux-Residual
  Residual-Control   Outer-Iter.   Inner-Iter.     Column Row Layer    Maximum-Head-Change  Column Row Layer    Maximum-Flux-Residual          L2-NORM 
          0                 1           2             4    7     1      -0.9130654715E-01       4    7    1        -0.4801922559E+01      0.1085014415E+02
          0                 2           2             4    7     1       0.8881446217E-02       4    7    1         0.4801793518E+00      0.1084973952E+01
          0                 3           2             4    7     1      -0.6047954295E-03       4    7    1        -0.3361269123E-01      0.7594540969E-01
          0                 4           1             4    7     1       0.2406536776E-04       4    7    1         0.1374760427E-02      0.3106002122E-02

    ------------------------------------------------
       NWT REQUIRED            4 OUTER ITERATIONS 
       AND A TOTAL OF          7 INNER ITERATIONS.
    ------------------------------------------------

 NO OUTPUT CONTROL FOR STRESS PERIOD    9   TIME STEP    1
 
 SOLVING FOR HEAD 
                                                   Max.-Head-Change                         Max.-Flux-Residual
  Residual-Control   Outer-Iter.   Inner-Iter.     Column Row Layer    Maximum-Head-Change  Column Row Layer    Maximum-Flux-Residual          L2-NORM 
          0                 1           2             4    7     1      -0.9022789304E-01       4    7    1        -0.4744344244E+01      0.1078571464E+02
          0                 2           2             4    7     1       0.8776528576E-02       4    7    1         0.4744219282E+00      0.1078536383E+01
          0                 3           2             4    7     1      -0.5976508686E-03       4    7    1        -0.3320966756E-01      0.7549526556E-01
          0                 4           1             4    7     1       0.2378107926E-04       4    7    1         0.1358276739E-02      0.3087598002E-02

    ------------------------------------------------
       NWT REQUIRED            4 OUTER ITERATIONS 
       AND A TOTAL OF          7 INNER ITERATIONS.
    ------------------------------------------------

 NO OUTPUT CONTROL FOR STRESS PERIOD    9   TIME STEP    2
 
 SOLVING FOR HEAD 
                                                   Max.-Head-Change                         Max.-Flux-Residual
  Residual-Control   Outer-Iter.   Inner-Iter.     Column Row Layer    Maximum-Head-Change  Column Row Layer    Maximum-Flux-Residual          L2-NORM 
          0                 1           2             4    7     1      -0.8917762394E-01       4    7    1        -0.4688292877E+01      0.1072192055E+02
          0                 2           2             4    7     1       0.8674371772E-02       4    7    1         0.4688171825E+00      0.1072163662E+01
          0                 3           2             4    7     1      -0.5906943128E-03       4    7    1        -0.3281733149E-01      0.7504976266E-01
          0                 4           1             4    7     1       0.2350427175E-04       4    7    1         0.1342230203E-02      0.3069406596E-02

    ------------------------------------------------
       NWT REQUIRED            4 OUTER ITERATIONS 
       AND A TOTAL OF          7 INNER ITERATIONS.
    ------------------------------------------------

 NO OUTPUT CONTROL FOR STRESS PERIOD    9   TIME STEP    3
 
 SOLVING FOR HEAD 
                                                   Max.-Head-Change                         Max.-Flux-Residual
  Residual-Control   Outer-Iter.   Inner-Iter.     Column Row Layer    Maximum-Head-Change  Column Row Layer    Maximum-Flux-Residual          L2-NORM 
          0                 1           2             4    7     1      -0.8815486078E-01       4    7    1        -0.4633721591E+01      0.1065983501E+02
          0                 2           2             4    7     1       0.8574890307E-02       4    7    1         0.4633604286E+00      0.1065959823E+01
          0                 3           2             4    7     1      -0.5839199399E-03       4    7    1        -0.3243535501E-01      0.7461590635E-01
          0                 4           1             4    7     1       0.2323471337E-04       4    7    1         0.1326607341E-02      0.3051711582E-02

    ------------------------------------------------
       NWT REQUIRED            4 OUTER ITERATIONS 
       AND A TOTAL OF          7 INNER ITERATIONS.
    ------------------------------------------------

 NO OUTPUT CONTROL FOR STRESS PERIOD    9   TIME STEP    4
 
 SOLVING FOR HEAD 
                                                   Max.-Head-Change                         Max.-Flux-Residual
  Residual-Control   Outer-Iter.   Inner-Iter.     Column Row Layer    Maximum-Head-Change  Column Row Layer    Maximum-Flux-Residual          L2-NORM 
          0                 1           2             4    7     1      -0.8715842100E-01       4    7    1        -0.4580567336E+01      0.1059923456E+02
          0                 2           2             4    7     1       0.8477969160E-02       4    7    1         0.4580453623E+00      0.1059903168E+01
          0                 3           2             4    7     1      -0.5773199175E-03       4    7    1        -0.3206329679E-01      0.7419224769E-01
          0                 4           1             4    7     1       0.2297209269E-04       4    7    1         0.1311390168E-02      0.3034399275E-02

    ------------------------------------------------
       NWT REQUIRED            4 OUTER ITERATIONS 
       AND A TOTAL OF          7 INNER ITERATIONS.
    ------------------------------------------------

 NO OUTPUT CONTROL FOR STRESS PERIOD    9   TIME STEP    5
 
 SOLVING FOR HEAD 
                                                   Max.-Head-Change                         Max.-Flux-Residual
  Residual-Control   Outer-Iter.   Inner-Iter.     Column Row Layer    Maximum-Head-Change  Column Row Layer    Maximum-Flux-Residual          L2-NORM 
          0                 1           2             4    7     1      -0.8618750409E-01       4    7    1        -0.4528787215E+01      0.1054001108E+02
          0                 2           2             4    7     1       0.8383530475E-02       4    7    1         0.4528676945E+00      0.1053983308E+01
          0                 3           2             4    7     1      -0.5708889440E-03       4    7    1        -0.3170085664E-01      0.7377806015E-01
          0                 4           1             4    7     1       0.2271619846E-04       4    7    1         0.1296566365E-02      0.3017454007E-02

    ------------------------------------------------
       NWT REQUIRED            4 OUTER ITERATIONS 
       AND A TOTAL OF          7 INNER ITERATIONS.
    ------------------------------------------------

 NO OUTPUT CONTROL FOR STRESS PERIOD    9   TIME STEP    6
 
 SOLVING FOR HEAD 
                                                   Max.-Head-Change                         Max.-Flux-Residual
  Residual-Control   Outer-Iter.   Inner-Iter.     Column Row Layer    Maximum-Head-Change  Column Row Layer    Maximum-Flux-Residual          L2-NORM 
          0                 1           2             4    7     1      -0.8524116364E-01       4    7    1        -0.4478330510E+01      0.1048206872E+02
          0                 2           2             4    7     1       0.8291482200E-02       4    7    1         0.4478223540E+00      0.1048191025E+01
          0                 3           2             4    7     1      -0.5646207504E-03       4    7    1        -0.3134767954E-01      0.7337277297E-01
          0                 4           1             4    7     1       0.2246678119E-04       4    7    1         0.1282121413E-02      0.3000922460E-02

    ------------------------------------------------
       NWT REQUIRED            4 OUTER ITERATIONS 
       AND A TOTAL OF          7 INNER ITERATIONS.
    ------------------------------------------------

 NO OUTPUT CONTROL FOR STRESS PERIOD    9   TIME STEP    7
 
 SOLVING FOR HEAD 
                                                   Max.-Head-Change                         Max.-Flux-Residual
  Residual-Control   Outer-Iter.   Inner-Iter.     Column Row Layer    Maximum-Head-Change  Column Row Layer    Maximum-Flux-Residual          L2-NORM 
          0                 1           2             4    7     1      -0.8431873277E-01       4    7    1        -0.4429161790E+01      0.1042531903E+02
          0                 2           2             4    7     1       0.8201759474E-02       4    7    1         0.4429057983E+00      0.1042517547E+01
          0                 3           2             4    7     1      -0.5585109200E-03       4    7    1        -0.3100351749E-01      0.7297574456E-01
          0                 4           1             4    7     1       0.2222366601E-04       4    7    1         0.1268045183E-02      0.2984678631E-02

    ------------------------------------------------
       NWT REQUIRED            4 OUTER ITERATIONS 
       AND A TOTAL OF          7 INNER ITERATIONS.
    ------------------------------------------------

 NO OUTPUT CONTROL FOR STRESS PERIOD    9   TIME STEP    8
 
 SOLVING FOR HEAD 
                                                   Max.-Head-Change                         Max.-Flux-Residual
  Residual-Control   Outer-Iter.   Inner-Iter.     Column Row Layer    Maximum-Head-Change  Column Row Layer    Maximum-Flux-Residual          L2-NORM 
          0                 1           2             4    7     1      -0.8341919669E-01       4    7    1        -0.4381226487E+01      0.1036970973E+02
          0                 2           2             4    7     1       0.8114263598E-02       4    7    1         0.4381125713E+00      0.1036957851E+01
          0                 3           2             4    7     1      -0.5525527314E-03       4    7    1        -0.3066798859E-01      0.7258667927E-01
          0                 4           1             4    7     1       0.2198658397E-04       4    7    1         0.1254322034E-02      0.2968777607E-02

    ------------------------------------------------
       NWT REQUIRED            4 OUTER ITERATIONS 
       AND A TOTAL OF          7 INNER ITERATIONS.
    ------------------------------------------------

 NO OUTPUT CONTROL FOR STRESS PERIOD    9   TIME STEP    9
 
 SOLVING FOR HEAD 
                                                   Max.-Head-Change                         Max.-Flux-Residual
  Residual-Control   Outer-Iter.   Inner-Iter.     Column Row Layer    Maximum-Head-Change  Column Row Layer    Maximum-Flux-Residual          L2-NORM 
          0                 1           2             4    7     1      -0.8254169585E-01       4    7    1        -0.4334478328E+01      0.1031518759E+02
          0                 2           2             4    7     1       0.8028910969E-02       4    7    1         0.4334380464E+00      0.1031506584E+01
          0                 3           2             4    7     1      -0.5467404924E-03       4    7    1        -0.3034076896E-01      0.7220513357E-01
          0                 4           1             4    7     1       0.2175531001E-04       4    7    1         0.1240938760E-02      0.2953176113E-02

    ------------------------------------------------
       NWT REQUIRED            4 OUTER ITERATIONS 
       AND A TOTAL OF          7 INNER ITERATIONS.
    ------------------------------------------------

 NO OUTPUT CONTROL FOR STRESS PERIOD    9   TIME STEP   10
 
 SOLVING FOR HEAD 
                                                   Max.-Head-Change                         Max.-Flux-Residual
  Residual-Control   Outer-Iter.   Inner-Iter.     Column Row Layer    Maximum-Head-Change  Column Row Layer    Maximum-Flux-Residual          L2-NORM 
          0                 1           2             4    7     1      -0.8168569044E-01       4    7    1        -0.4288888285E+01      0.1026170579E+02
          0                 2           2             4    7     1       0.7945649081E-02       4    7    1         0.4288793213E+00      0.1026154984E+01
          0                 3           2             4    7     1      -0.5410706260E-03       4    7    1        -0.3002165541E-01      0.7183059729E-01
          0                 4           1             4    7     1       0.2152970066E-04       4    7    1         0.1227887000E-02      0.2937856023E-02

    ------------------------------------------------
       NWT REQUIRED            4 OUTER ITERATIONS 
       AND A TOTAL OF          7 INNER ITERATIONS.
    ------------------------------------------------

 NO OUTPUT CONTROL FOR STRESS PERIOD    9   TIME STEP   11
 
 SOLVING FOR HEAD 
                                                   Max.-Head-Change                         Max.-Flux-Residual
  Residual-Control   Outer-Iter.   Inner-Iter.     Column Row Layer    Maximum-Head-Change  Column Row Layer    Maximum-Flux-Residual          L2-NORM 
          0                 1           2             4    7     1      -0.8085020187E-01       4    7    1        -0.4244403623E+01      0.1020921412E+02
          0                 2           2             4    7     1       0.7864382763E-02       4    7    1         0.4244311229E+00      0.1020910803E+01
          0                 3           2             4    7     1      -0.5355366522E-03       4    7    1        -0.2971027884E-01      0.7146354886E-01
          0                 4           1             4    7     1       0.2130949875E-04       4    7    1         0.1215151684E-02      0.2922839661E-02

    ------------------------------------------------
       NWT REQUIRED            4 OUTER ITERATIONS 
       AND A TOTAL OF          7 INNER ITERATIONS.
    ------------------------------------------------

 NO OUTPUT CONTROL FOR STRESS PERIOD    9   TIME STEP   12
 
 SOLVING FOR HEAD 
                                                   Max.-Head-Change                         Max.-Flux-Residual
  Residual-Control   Outer-Iter.   Inner-Iter.     Column Row Layer    Maximum-Head-Change  Column Row Layer    Maximum-Flux-Residual          L2-NORM 
          0                 1           2             4    7     1      -0.8003449537E-01       4    7    1        -0.4200984711E+01      0.1015770344E+02
          0                 2           2             4    7     1       0.7785040542E-02       4    7    1         0.4200894887E+00      0.1015760338E+01
          0                 3           2             4    7     1      -0.5301337046E-03       4    7    1        -0.2940636190E-01      0.7110306773E-01
          0                 4           1             4    7     1       0.2109451074E-04       4    7    1         0.1202721492E-02      0.2908109944E-02

    ------------------------------------------------
       NWT REQUIRED            4 OUTER ITERATIONS 
       AND A TOTAL OF          7 INNER ITERATIONS.
    ------------------------------------------------

 NO OUTPUT CONTROL FOR STRESS PERIOD    9   TIME STEP   13
 
 SOLVING FOR HEAD 
                                                   Max.-Head-Change                         Max.-Flux-Residual
  Residual-Control   Outer-Iter.   Inner-Iter.     Column Row Layer    Maximum-Head-Change  Column Row Layer    Maximum-Flux-Residual          L2-NORM 
          0                 1           2             4    7     1      -0.7923794797E-01       4    7    1        -0.4158597878E+01      0.1010713329E+02
          0                 2           2             4    7     1       0.7707561828E-02       4    7    1         0.4158510523E+00      0.1010703836E+01
          0                 3           2             4    7     1      -0.5248576561E-03       4    7    1        -0.2910966890E-01      0.7074913785E-01
          0                 4           1             4    7     1       0.2088457199E-04       4    7    1         0.1190586740E-02      0.2893629211E-02

    ------------------------------------------------
       NWT REQUIRED            4 OUTER ITERATIONS 
       AND A TOTAL OF          7 INNER ITERATIONS.
    ------------------------------------------------

 NO OUTPUT CONTROL FOR STRESS PERIOD    9   TIME STEP   14
 
 SOLVING FOR HEAD 
                                                   Max.-Head-Change                         Max.-Flux-Residual
  Residual-Control   Outer-Iter.   Inner-Iter.     Column Row Layer    Maximum-Head-Change  Column Row Layer    Maximum-Flux-Residual          L2-NORM 
          0                 1           2             4    7     1      -0.7845986150E-01       4    7    1        -0.4117205439E+01      0.1005746361E+02
          0                 2           2             4    7     1       0.7631878717E-02       4    7    1         0.4117120454E+00      0.1005737318E+01
          0                 3           2             4    7     1      -0.5197038829E-03       4    7    1        -0.2881993605E-01      0.7040151408E-01
          0                 4           1             4    7     1       0.2067949876E-04       4    7    1         0.1178736660E-02      0.2879412037E-02

    ------------------------------------------------
       NWT REQUIRED            4 OUTER ITERATIONS 
       AND A TOTAL OF          7 INNER ITERATIONS.
    ------------------------------------------------

 NO OUTPUT CONTROL FOR STRESS PERIOD    9   TIME STEP   15
 
 SOLVING FOR HEAD 
                                                   Max.-Head-Change                         Max.-Flux-Residual
  Residual-Control   Outer-Iter.   Inner-Iter.     Column Row Layer    Maximum-Head-Change  Column Row Layer    Maximum-Flux-Residual          L2-NORM 
          0                 1           2             4    7     1      -0.7769966503E-01       4    7    1        -0.4076776572E+01      0.1000865835E+02
          0                 2           2             4    7     1       0.7557935677E-02       4    7    1         0.4076693864E+00      0.1000857187E+01
          0                 3           2             4    7     1      -0.5146686029E-03       4    7    1        -0.2853694763E-01      0.7005991811E-01
          0                 4           1             4    7     1       0.2047914036E-04       4    7    1         0.1167162423E-02      0.2865441078E-02

    ------------------------------------------------
       NWT REQUIRED            4 OUTER ITERATIONS 
       AND A TOTAL OF          7 INNER ITERATIONS.
    ------------------------------------------------

 NO OUTPUT CONTROL FOR STRESS PERIOD    9   TIME STEP   16
 
 SOLVING FOR HEAD 
                                                   Max.-Head-Change                         Max.-Flux-Residual
  Residual-Control   Outer-Iter.   Inner-Iter.     Column Row Layer    Maximum-Head-Change  Column Row Layer    Maximum-Flux-Residual          L2-NORM 
          0                 1           2             4    7     1      -0.7695657801E-01       4    7    1        -0.4037269004E+01      0.9960697982E+01
          0                 2           2             4    7     1       0.7485656791E-02       4    7    1         0.4037188485E+00      0.9960615215E+00
          0                 3           2             4    7     1      -0.5097466472E-03       4    7    1        -0.2826040778E-01      0.6972426179E-01
          0                 4           1             4    7     1       0.2028329139E-04       4    7    1         0.1155851940E-02      0.2851720302E-02

    ------------------------------------------------
       NWT REQUIRED            4 OUTER ITERATIONS 
       AND A TOTAL OF          7 INNER ITERATIONS.
    ------------------------------------------------

 NO OUTPUT CONTROL FOR STRESS PERIOD    9   TIME STEP   17
 
 SOLVING FOR HEAD 
                                                   Max.-Head-Change                         Max.-Flux-Residual
  Residual-Control   Outer-Iter.   Inner-Iter.     Column Row Layer    Maximum-Head-Change  Column Row Layer    Maximum-Flux-Residual          L2-NORM 
          0                 1           2             4    7     1      -0.7623010620E-01       4    7    1        -0.3998655885E+01      0.9913562316E+01
          0                 2           2             4    7     1       0.7414993989E-02       4    7    1         0.3998577470E+00      0.9913482747E+00
          0                 3           2             4    7     1      -0.5049347423E-03       4    7    1        -0.2799012857E-01      0.6939435624E-01
          0                 4           1             4    7     1       0.2009182129E-04       4    7    1         0.1144797518E-02      0.2838232576E-02

    ------------------------------------------------
       NWT REQUIRED            4 OUTER ITERATIONS 
       AND A TOTAL OF          7 INNER ITERATIONS.
    ------------------------------------------------

 NO OUTPUT CONTROL FOR STRESS PERIOD    9   TIME STEP   18
 
 SOLVING FOR HEAD 
                                                   Max.-Head-Change                         Max.-Flux-Residual
  Residual-Control   Outer-Iter.   Inner-Iter.     Column Row Layer    Maximum-Head-Change  Column Row Layer    Maximum-Flux-Residual          L2-NORM 
          0                 1           2             4    7     1      -0.7551975262E-01       4    7    1        -0.3960910629E+01      0.9867217669E+01
          0                 2           2             4    7     1       0.7345898933E-02       4    7    1         0.3960834237E+00      0.9867140875E+00
          0                 3           2             4    7     1      -0.5002295963E-03       4    7    1        -0.2772592392E-01      0.6906996191E-01
          0                 4           1             4    7     1       0.1990459941E-04       4    7    1         0.1133991549E-02      0.2824955954E-02

    ------------------------------------------------
       NWT REQUIRED            4 OUTER ITERATIONS 
       AND A TOTAL OF          7 INNER ITERATIONS.
    ------------------------------------------------

 NO OUTPUT CONTROL FOR STRESS PERIOD    9   TIME STEP   19
 
 SOLVING FOR HEAD 
                                                   Max.-Head-Change                         Max.-Flux-Residual
  Residual-Control   Outer-Iter.   Inner-Iter.     Column Row Layer    Maximum-Head-Change  Column Row Layer    Maximum-Flux-Residual          L2-NORM 
          0                 1           2             4    7     1      -0.7482469768E-01       4    7    1        -0.3923988478E+01      0.9821655300E+01
          0                 2           2             4    7     1       0.7278291906E-02       4    7    1         0.3923914033E+00      0.9821581104E+00
          0                 3           2             4    7     1      -0.4956257800E-03       4    7    1        -0.2746748054E-01      0.6875106140E-01
          0                 4           1             4    7     1       0.1972140883E-04       4    7    1         0.1123421187E-02      0.2811918895E-02

    ------------------------------------------------
       NWT REQUIRED            4 OUTER ITERATIONS 
       AND A TOTAL OF          7 INNER ITERATIONS.
    ------------------------------------------------

 NO OUTPUT CONTROL FOR STRESS PERIOD    9   TIME STEP   20
 
 SOLVING FOR HEAD 
                                                   Max.-Head-Change                         Max.-Flux-Residual
  Residual-Control   Outer-Iter.   Inner-Iter.     Column Row Layer    Maximum-Head-Change  Column Row Layer    Maximum-Flux-Residual          L2-NORM 
          0                 1           2             4    7     1      -0.7414477137E-01       4    7    1        -0.3887880488E+01      0.9776836961E+01
          0                 2           2             4    7     1       0.7212156373E-02       4    7    1         0.3887807916E+00      0.9776765129E+00
          0                 3           2             4    7     1      -0.4911221683E-03       4    7    1        -0.2721473583E-01      0.6843735888E-01
          0                 4           1             4    7     1       0.1954220604E-04       4    7    1         0.1113083928E-02      0.2799085612E-02

    ------------------------------------------------
       NWT REQUIRED            4 OUTER ITERATIONS 
       AND A TOTAL OF          7 INNER ITERATIONS.
    ------------------------------------------------

 NO OUTPUT CONTROL FOR STRESS PERIOD    9   TIME STEP   21
 
 SOLVING FOR HEAD 
                                                   Max.-Head-Change                         Max.-Flux-Residual
  Residual-Control   Outer-Iter.   Inner-Iter.     Column Row Layer    Maximum-Head-Change  Column Row Layer    Maximum-Flux-Residual          L2-NORM 
          0                 1           2             4    7     1      -0.7347916067E-01       4    7    1        -0.3852542385E+01      0.9732757861E+01
          0                 2           2             4    7     1       0.7147345618E-02       4    7    1         0.3852471617E+00      0.9732531192E+00
          0                 3           2             4    7     1      -0.4867087704E-03       4    7    1        -0.2696737997E-01      0.6812772172E-01
          0                 4           1             4    7     1       0.1936659282E-04       4    7    1         0.1102967061E-02      0.2786419716E-02

    ------------------------------------------------
       NWT REQUIRED            4 OUTER ITERATIONS 
       AND A TOTAL OF          7 INNER ITERATIONS.
    ------------------------------------------------

 NO OUTPUT CONTROL FOR STRESS PERIOD    9   TIME STEP   22
 
 SOLVING FOR HEAD 
                                                   Max.-Head-Change                         Max.-Flux-Residual
  Residual-Control   Outer-Iter.   Inner-Iter.     Column Row Layer    Maximum-Head-Change  Column Row Layer    Maximum-Flux-Residual          L2-NORM 
          0                 1           2             4    7     1      -0.7282785019E-01       4    7    1        -0.3817964744E+01      0.9689402713E+01
          0                 2           2             4    7     1       0.7084061121E-02       4    7    1         0.3817895721E+00      0.9689337201E+00
          0                 3           2             4    7     1      -0.4823993051E-03       4    7    1        -0.2672534690E-01      0.6782559433E-01
          0                 4           1             4    7     1       0.1919511567E-04       4    7    1         0.1093067903E-02      0.2774062861E-02

    ------------------------------------------------
       NWT REQUIRED            4 OUTER ITERATIONS 
       AND A TOTAL OF          7 INNER ITERATIONS.
    ------------------------------------------------

 NO OUTPUT CONTROL FOR STRESS PERIOD    9   TIME STEP   23
 
 SOLVING FOR HEAD 
                                                   Max.-Head-Change                         Max.-Flux-Residual
  Residual-Control   Outer-Iter.   Inner-Iter.     Column Row Layer    Maximum-Head-Change  Column Row Layer    Maximum-Flux-Residual          L2-NORM 
          0                 1           2             4    7     1      -0.7218984983E-01       4    7    1        -0.3784106826E+01      0.9646748192E+01
          0                 2           2             4    7     1       0.7022003561E-02       4    7    1         0.3784039482E+00      0.9646758515E+00
          0                 3           2             4    7     1      -0.4781733909E-03       4    7    1        -0.2648835152E-01      0.6752733193E-01
          0                 4           1             4    7     1       0.1902696260E-04       4    7    1         0.1083374784E-02      0.2761868177E-02

    ------------------------------------------------
       NWT REQUIRED            4 OUTER ITERATIONS 
       AND A TOTAL OF          7 INNER ITERATIONS.
    ------------------------------------------------

 NO OUTPUT CONTROL FOR STRESS PERIOD    9   TIME STEP   24
 
 SOLVING FOR HEAD 
                                                   Max.-Head-Change                         Max.-Flux-Residual
  Residual-Control   Outer-Iter.   Inner-Iter.     Column Row Layer    Maximum-Head-Change  Column Row Layer    Maximum-Flux-Residual          L2-NORM 
          0                 1           2             4    7     1      -0.7156516828E-01       4    7    1        -0.3750965461E+01      0.9604774921E+01
          0                 2           2             4    7     1       0.6961241465E-02       4    7    1         0.3750899733E+00      0.9604818105E+00
          0                 3           2             4    7     1      -0.4740356944E-03       4    7    1        -0.2625637166E-01      0.6723376007E-01
          0                 4           1             4    7     1       0.1886231977E-04       4    7    1         0.1073886806E-02      0.2749859711E-02

    ------------------------------------------------
       NWT REQUIRED            4 OUTER ITERATIONS 
       AND A TOTAL OF          7 INNER ITERATIONS.
    ------------------------------------------------

 NO OUTPUT CONTROL FOR STRESS PERIOD    9   TIME STEP   25
 
 SOLVING FOR HEAD 
                                                   Max.-Head-Change                         Max.-Flux-Residual
  Residual-Control   Outer-Iter.   Inner-Iter.     Column Row Layer    Maximum-Head-Change  Column Row Layer    Maximum-Flux-Residual          L2-NORM 
          0                 1           2             4    7     1      -0.7095304718E-01       4    7    1        -0.3718499197E+01      0.9563424894E+01
          0                 2           2             4    7     1       0.6901701055E-02       4    7    1         0.3718435027E+00      0.9563363354E+00
          0                 3           2             4    7     1      -0.4699811906E-03       4    7    1        -0.2602911714E-01      0.6694357871E-01
          0                 4           1             4    7     1       0.1870098732E-04       4    7    1         0.1064592083E-02      0.2737992749E-02

    ------------------------------------------------
       NWT REQUIRED            4 OUTER ITERATIONS 
       AND A TOTAL OF          7 INNER ITERATIONS.
    ------------------------------------------------

 NO OUTPUT CONTROL FOR STRESS PERIOD    9   TIME STEP   26
 
 SOLVING FOR HEAD 
                                                   Max.-Head-Change                         Max.-Flux-Residual
  Residual-Control   Outer-Iter.   Inner-Iter.     Column Row Layer    Maximum-Head-Change  Column Row Layer    Maximum-Flux-Residual          L2-NORM 
          0                 1           2             4    7     1      -0.7035305826E-01       4    7    1        -0.3686685175E+01      0.9522688787E+01
          0                 2           2             4    7     1       0.6843340709E-02       4    7    1         0.3686622508E+00      0.9522628684E+00
          0                 3           2             4    7     1      -0.4660070461E-03       4    7    1        -0.2580642800E-01      0.6665843803E-01
          0                 4           1             4    7     1       0.1854285311E-04       4    7    1         0.1055484111E-02      0.2726331612E-02

    ------------------------------------------------
       NWT REQUIRED            4 OUTER ITERATIONS 
       AND A TOTAL OF          7 INNER ITERATIONS.
    ------------------------------------------------

 NO OUTPUT CONTROL FOR STRESS PERIOD    9   TIME STEP   27
 
 SOLVING FOR HEAD 
                                                   Max.-Head-Change                         Max.-Flux-Residual
  Residual-Control   Outer-Iter.   Inner-Iter.     Column Row Layer    Maximum-Head-Change  Column Row Layer    Maximum-Flux-Residual          L2-NORM 
          0                 1           2             4    7     1      -0.6976504924E-01       4    7    1        -0.3655514781E+01      0.9482580493E+01
          0                 2           2             4    7     1       0.6786145600E-02       4    7    1         0.3655453563E+00      0.9482521793E+00
          0                 3           2             4    7     1      -0.4621122500E-03       4    7    1        -0.2558824390E-01      0.6637769598E-01
          0                 4           1             4    7     1       0.1838787501E-04       4    7    1         0.1046560363E-02      0.2714849475E-02

    ------------------------------------------------
       NWT REQUIRED            4 OUTER ITERATIONS 
       AND A TOTAL OF          7 INNER ITERATIONS.
    ------------------------------------------------

 NO OUTPUT CONTROL FOR STRESS PERIOD    9   TIME STEP   28
 
 SOLVING FOR HEAD 
                                                   Max.-Head-Change                         Max.-Flux-Residual
  Residual-Control   Outer-Iter.   Inner-Iter.     Column Row Layer    Maximum-Head-Change  Column Row Layer    Maximum-Flux-Residual          L2-NORM 
          0                 1           2             4    7     1      -0.6918843743E-01       4    7    1        -0.3624956388E+01      0.9443106693E+01
          0                 2           2             4    7     1       0.6728808515E-02       4    7    1         0.3623309234E+00      0.9442963315E+00
          0                 3           2             4    7     1      -0.4582077604E-03       4    7    1        -0.2536323035E-01      0.6610078449E-01
          0                 4           1             4    7     1       0.1823251227E-04       4    7    1         0.1037357315E-02      0.2703524285E-02

    ------------------------------------------------
       NWT REQUIRED            4 OUTER ITERATIONS 
       AND A TOTAL OF          7 INNER ITERATIONS.
    ------------------------------------------------

 NO OUTPUT CONTROL FOR STRESS PERIOD    9   TIME STEP   29
 
 SOLVING FOR HEAD 
                                                   Max.-Head-Change                         Max.-Flux-Residual
  Residual-Control   Outer-Iter.   Inner-Iter.     Column Row Layer    Maximum-Head-Change  Column Row Layer    Maximum-Flux-Residual          L2-NORM 
          0                 1           2             4    7     1      -0.6863988373E-01       4    7    1        -0.3595065752E+01      0.9404230863E+01
          0                 2           2             4    7     1       0.6676704139E-02       4    7    1         0.3595008998E+00      0.9404174740E+00
          0                 3           2             4    7     1      -0.4546596293E-03       4    7    1        -0.2516512756E-01      0.6582927295E-01
          0                 4           1             4    7     1       0.1809132865E-04       4    7    1         0.1029254909E-02      0.2692416786E-02

    ------------------------------------------------
       NWT REQUIRED            4 OUTER ITERATIONS 
       AND A TOTAL OF          7 INNER ITERATIONS.
    ------------------------------------------------

 NO OUTPUT CONTROL FOR STRESS PERIOD    9   TIME STEP   30



 STREAM LISTING     PERIOD      9   STEP       30

 LAYER ROW COL. STREAM  RCH.  FLOW INTO     FLOW TO   FLOW OUT OF   OVRLND.     DIRECT     STREAM       STREAM     STREAM     STREAM   STREAMBED  STREAMBED
                SEG.NO.  NO.  STRM. RCH.    AQUIFER    STRM. RCH.    RUNOFF     PRECIP       ET          HEAD       DEPTH      WIDTH   CONDCTNC.   GRADIENT

   1    1    1     1     1    6.1000E+01  3.7546E-01   6.0624E+01  0.000E+00  0.000E+00  0.000E+00  1.09459E+03  1.538E+00  1.839E+01  8.274E-02  1.513E+00
   1    2    2     1     2    6.0624E+01  5.8146E-01   6.0043E+01  0.000E+00  0.000E+00  0.000E+00  1.08959E+03  1.532E+00  1.833E+01  1.283E-01  1.511E+00
   1    3    3     1     3    6.0043E+01  4.9588E-01   5.9547E+01  0.000E+00  0.000E+00  0.000E+00  1.08394E+03  1.525E+00  1.826E+01  1.096E-01  1.508E+00
   1    3    4     1     4    5.9547E+01  4.5664E-01   5.9090E+01  0.000E+00  0.000E+00  0.000E+00  1.07893E+03  1.519E+00  1.821E+01  1.010E-01  1.506E+00
   1    4    5     2     1    5.7090E+01  3.8827E-01   5.6702E+01  0.000E+00  0.000E+00  0.000E+00  1.07391E+03  1.978E+00  1.200E+01  7.800E-02  1.659E+00
   1    5    6     2     2    5.6702E+01  2.9824E-01   5.6404E+01  0.000E+00  0.000E+00  0.000E+00  1.06848E+03  1.971E+00  1.200E+01  6.000E-02  1.657E+00
   1    6    6     2     3    5.6404E+01  2.9787E-01   5.6106E+01  0.000E+00  0.000E+00  0.000E+00  1.06376E+03  1.964E+00  1.200E+01  6.000E-02  1.655E+00
   1    7    6     2     4    5.6106E+01  2.9749E-01   5.5808E+01  0.000E+00  0.000E+00  0.000E+00  1.05903E+03  1.958E+00  1.200E+01  6.000E-02  1.653E+00
   1    8    6     2     5    5.5808E+01  2.9712E-01   5.5511E+01  0.000E+00  0.000E+00  0.000E+00  1.05431E+03  1.952E+00  1.200E+01  6.000E-02  1.651E+00
   1    3    5     3     1    2.0000E+00  2.8252E-01   1.7175E+00  0.000E+00  0.000E+00  0.000E+00  1.07555E+03  1.909E+00  9.636E+00  7.227E-02  1.955E+00
   1    3    6     3     2    1.7175E+00  2.4905E-01   1.4684E+00  0.000E+00  0.000E+00  0.000E+00  1.07264E+03  1.727E+00  8.909E+00  6.682E-02  1.864E+00
   1    3    7     3     3    1.4684E+00  1.9718E-01   1.2712E+00  0.000E+00  0.000E+00  0.000E+00  1.06987E+03  1.555E+00  8.218E+00  5.547E-02  1.777E+00
   1    4    8     3     4    1.2712E+00  2.2567E-01   1.0456E+00  0.000E+00  0.000E+00  0.000E+00  1.06682E+03  1.364E+00  7.455E+00  6.709E-02  1.682E+00
   1    5    8     3     5    1.0456E+00  1.5790E-01   8.8768E-01  0.000E+00  0.000E+00  0.000E+00  1.06362E+03  1.164E+00  6.655E+00  4.991E-02  1.582E+00
   1    6    8     3     6    8.8768E-01  5.5980E-02   8.3170E-01  0.000E+00  0.000E+00  0.000E+00  1.06158E+03  1.036E+00  6.145E+00  1.844E-02  1.518E+00
   1    5   10     4     1    1.0000E+01  9.0919E-02   9.9091E+00  0.000E+00  0.000E+00  0.000E+00  1.07836E+03  6.368E-01  1.000E+01  2.500E-02  1.212E+00
   1    5    9     4     2    9.9091E+00  1.8158E-01   9.7275E+00  0.000E+00  0.000E+00  0.000E+00  1.07154E+03  6.315E-01  1.000E+01  5.000E-02  1.211E+00
   1    6    8     4     3    9.7275E+00  1.2689E-01   9.6006E+00  0.000E+00  0.000E+00  0.000E+00  1.06381E+03  6.256E-01  1.000E+01  3.500E-02  1.209E+00
   1    6    8     5     1    1.0432E+01  2.2686E-01   1.0205E+01  0.000E+00  0.000E+00  0.000E+00  1.05868E+03  6.790E-01  1.542E+01  6.166E-02  1.226E+00
   1    7    7     5     2    1.0205E+01  2.7894E-01   9.9265E+00  0.000E+00  0.000E+00  0.000E+00  1.05417E+03  6.732E-01  1.519E+01  7.594E-02  1.224E+00
   1    8    7     5     3    9.9265E+00  1.9221E-01   9.7343E+00  0.000E+00  0.000E+00  0.000E+00  1.04992E+03  6.676E-01  1.497E+01  5.241E-02  1.223E+00
   1    8    6     5     4    9.7343E+00  1.3577E-01   9.5985E+00  0.000E+00  0.000E+00  0.000E+00  1.04691E+03  6.637E-01  1.482E+01  3.706E-02  1.221E+00
   1    9    6     6     1    6.5110E+01  3.0992E-01   6.4800E+01  0.000E+00  0.000E+00  0.000E+00  1.04489E+03  2.165E+00  1.200E+01  6.000E-02  1.722E+00
   1   10    7     6     2    6.4800E+01  3.0955E-01   6.4490E+01  0.000E+00  0.000E+00  0.000E+00  1.04034E+03  2.159E+00  1.200E+01  6.000E-02  1.720E+00
   1   11    7     6     3    6.4490E+01  3.0918E-01   6.4181E+01  0.000E+00  0.000E+00  0.000E+00  1.03579E+03  2.153E+00  1.200E+01  6.000E-02  1.718E+00
   1   12    7     6     4    6.4181E+01  3.0881E-01   6.3872E+01  0.000E+00  0.000E+00  0.000E+00  1.03124E+03  2.147E+00  1.200E+01  6.000E-02  1.716E+00
   1   13    7     6     5    6.3872E+01  1.9334E-02   6.3853E+01  0.000E+00  0.000E+00  0.000E+00  1.02805E+03  2.143E+00  1.200E+01  2.400E-02  2.685E-01
   1   14    9     7     1    1.5000E+02  1.3312E+00   1.4867E+02  0.000E+00  0.000E+00  0.000E+00  1.03987E+03  2.288E+00  5.529E+01  5.593E-01  7.934E-01
   1   13    8     7     2    1.4867E+02  1.7954E+00   1.4687E+02  0.000E+00  0.000E+00  0.000E+00  1.03478E+03  2.279E+00  5.526E+01  6.148E-01  9.735E-01
   1   13    7     7     3    1.4687E+02  1.3646E+00   1.4551E+02  0.000E+00  0.000E+00  0.000E+00  1.02969E+03  2.271E+00  5.522E+01  5.585E-01  8.144E-01
   1   13    6     8     1    2.0936E+02  9.6406E-01   2.0840E+02  0.000E+00  0.000E+00  0.000E+00  1.02506E+03  3.189E+00  4.624E+01  4.712E-01  6.819E-01
   1   13    5     8     2    2.0840E+02  1.6988E-01   2.0823E+02  0.000E+00  0.000E+00  0.000E+00  1.01881E+03  3.186E+00  4.620E+01  4.708E-01  1.203E-01
   1   13    4     8     3    2.0823E+02 -2.1843E+00   2.1041E+02  0.000E+00  0.000E+00  0.000E+00  1.01257E+03  3.192E+00  4.628E+01  4.716E+00 -1.544E-01
   1   13    3     8     4    2.1041E+02 -3.3101E+00   2.1372E+02  0.000E+00  0.000E+00  0.000E+00  1.00633E+03  3.207E+00  4.651E+01  4.739E+00 -2.328E-01
   1   13    2     8     5    2.1372E+02 -2.5496E+00   2.1627E+02  0.000E+00  0.000E+00  0.000E+00  1.00010E+03  3.224E+00  4.675E+01  4.764E+00 -1.784E-01
   1   13    1     8     6    2.1627E+02 -2.0052E+00   2.1828E+02  0.000E+00  0.000E+00  0.000E+00  9.95112E+02  3.237E+00  4.693E+01  2.870E+00 -2.329E-01





UNSATURATED ZONE PACKAGE VOLUMETRIC BUDGET FOR  TIME STEP    30 STRESS PERIOD    9
  ------------------------------------------------------------------------------



     CUMULATIVE VOLUMES      L**3       RATES FOR THIS TIME STEP      L**3/T
     ------------------                 ------------------------

           IN:                                      IN:
           ---                                      ---
        INFILTRATION =   463886887.5544          INFILTRATION =          52.8221

          OUT:                                     OUT:
          ----                                     ----
              UZF ET =   443946119.8469                UZF ET =          52.8575
        UZF RECHARGE =       73224.0000          UZF RECHARGE =       0.0000E+00

            IN - OUT =    19867543.7075              IN - OUT =      -3.5371E-02

          STORAGE:                                 STORAGE:
          --------                                 --------
      STORAGE CHANGE =    19868239.1760        STORAGE CHANGE =      -3.5370E-02

 PERCENT DISCREPANCY IS DIFFERENCE BETWEEN IN-OUT MINUS CHANGE IN STORAGE
 DIVIDED BY THE AVERAGE OF IN AND OUT TIMES 100

 PERCENT DISCREPANCY =          -0.00     PERCENT DISCREPANCY =           0.00






1
  VOLUMETRIC BUDGET FOR ENTIRE MODEL AT END OF TIME STEP   30, STRESS PERIOD   9
  ------------------------------------------------------------------------------

     CUMULATIVE VOLUMES      L**3       RATES FOR THIS TIME STEP      L**3/T
     ------------------                 ------------------------

           IN:                                      IN:
           ---                                      ---
               AG WELLS  =   371079808.0000                 AG WELLS  =          48.4146
      DIVERSION SEGMENTS =           0.0000        DIVERSION SEGMENTS =           0.0000
           GW IRRIGATION =           0.0000             GW IRRIGATION =           0.0000
           SW IRRIGATION =           0.0000             SW IRRIGATION =           0.0000
        SYSTEM LOSSES GW =           0.0000          SYSTEM LOSSES GW =           0.0000
        SYSTEM LOSSES SW =           0.0000          SYSTEM LOSSES SW =           0.0000

                TOTAL IN =   371079808.0000                  TOTAL IN =          48.4146

          OUT:                                     OUT:
          ----                                     ----
               AG WELLS  =           0.0000                 AG WELLS  =           0.0000
      DIVERSION SEGMENTS =           0.0000        DIVERSION SEGMENTS =           0.0000
           GW IRRIGATION =   371079808.0000             GW IRRIGATION =          48.4146
           SW IRRIGATION =           0.0000             SW IRRIGATION =           0.0000
        SYSTEM LOSSES GW =           0.0000          SYSTEM LOSSES GW =           0.0000
        SYSTEM LOSSES SW =           0.0000          SYSTEM LOSSES SW =           0.0000

               TOTAL OUT =   371079808.0000                 TOTAL OUT =          48.4146

                IN - OUT =           0.0000                  IN - OUT =           0.0000

     PERCENT DISCREPANCY =           0.00         PERCENT DISCREPANCY =           0.00



1
  VOLUMETRIC BUDGET FOR ENTIRE MODEL AT END OF TIME STEP   30, STRESS PERIOD   9
  ------------------------------------------------------------------------------

     CUMULATIVE VOLUMES      L**3       RATES FOR THIS TIME STEP      L**3/T
     ------------------                 ------------------------

           IN:                                      IN:
           ---                                      ---
             STORAGE     =   374151968.0000               STORAGE     =          47.4614
       CONSTANT HEAD     =           0.0000         CONSTANT HEAD     =           0.0000
     HEAD DEP BOUNDS     =     6030661.5000       HEAD DEP BOUNDS     =           0.2854
      STREAM LEAKAGE     =   270655712.0000        STREAM LEAKAGE     =          12.7718
        UZF RECHARGE     =       73223.9531          UZF RECHARGE     =           0.0000
               GW ET     =           0.0000                 GW ET     =           0.0000
     SURFACE LEAKAGE     =           0.0000       SURFACE LEAKAGE     =           0.0000
           AG WELLS      =           0.0000             AG WELLS      =           0.0000

                TOTAL IN =   650911552.0000                  TOTAL IN =          60.5187

          OUT:                                     OUT:
          ----                                     ----
             STORAGE     =    48275804.0000               STORAGE     =           0.7772
       CONSTANT HEAD     =           0.0000         CONSTANT HEAD     =           0.0000
     HEAD DEP BOUNDS     =     6242960.5000       HEAD DEP BOUNDS     =           0.2968
      STREAM LEAKAGE     =   212453216.0000        STREAM LEAKAGE     =          10.0492
        UZF RECHARGE     =           0.0000          UZF RECHARGE     =           0.0000
               GW ET     =    12864137.0000                 GW ET     =           0.9810
     SURFACE LEAKAGE     =           0.0000       SURFACE LEAKAGE     =           0.0000
           AG WELLS      =   371079808.0000             AG WELLS      =          48.4146

               TOTAL OUT =   650915968.0000                 TOTAL OUT =          60.5188

                IN - OUT =       -4416.0000                  IN - OUT =      -1.6785E-04

     PERCENT DISCREPANCY =          -0.00         PERCENT DISCREPANCY =          -0.00






         TIME SUMMARY AT END OF TIME STEP   30 IN STRESS PERIOD    9
                    SECONDS     MINUTES      HOURS       DAYS        YEARS
                    -----------------------------------------------------------
   TIME STEP LENGTH  87667.      1461.1      24.352      1.0147     2.77799E-03
 STRESS PERIOD TIME 2.63000E+06  43833.      730.56      30.440     8.33397E-02
         TOTAL TIME 2.11264E+07 3.52107E+05  5868.4      244.52     0.66945    
1
1
                            STRESS PERIOD NO.   10, LENGTH =   2630000.    
                            -----------------------------------------------

                              NUMBER OF TIME STEPS =    30

                               MULTIPLIER FOR DELT =     1.000

                            INITIAL TIME STEP SIZE =   87666.66    

 REUSING NON-PARAMETER GHB CELLS FROM LAST STRESS PERIOD

      2 GHB CELLS

 REUSING STREAM SEGMENT DATA FROM LAST STRESS PERIOD



            AREAL INFILTRATION RATE
 READING ON UNIT   19 WITH FORMAT: (10F4.0)            

            1           2           3           4           5           6           7           8           9          10
 ........................................................................................................................
   1   1.2000E-09   0.000       0.000       0.000       0.000       0.000       0.000       0.000       0.000       0.000    
   2   2.1000E-09  2.0000E-09  8.0000E-10  8.5000E-09   0.000       0.000       0.000       0.000       0.000       0.000    
   3   5.0000E-10  1.1000E-09  8.8000E-09  5.5000E-09   0.000       0.000       0.000       0.000       0.000       0.000    
   4   8.5000E-09  1.1000E-09  1.1000E-09  1.1000E-09  2.0000E-09   0.000       0.000       0.000       0.000       0.000    
   5   8.5000E-09  1.1000E-09  1.1000E-09  1.1000E-09  1.1000E-09   0.000       0.000       0.000       0.000       0.000    
   6   8.5000E-09  5.2000E-09  2.1000E-09  1.1000E-09  1.5000E-09   0.000       0.000       0.000       0.000       0.000    
   7   8.5000E-09  5.2000E-09  2.1000E-09  1.2000E-09  2.0000E-09   0.000       0.000       0.000       0.000       0.000    
   8   5.0000E-10  5.2000E-09  2.1000E-09  1.2000E-09  5.0000E-09   0.000       0.000       0.000       0.000       0.000    
   9   5.0000E-10  5.2000E-09  2.1000E-09  1.2000E-09  5.0000E-09   0.000       0.000       0.000       0.000       0.000    
  10   5.0000E-10  5.2000E-09  2.1000E-09  1.2000E-09  5.8000E-09   0.000       0.000       0.000       0.000       0.000    
  11   1.0000E-10  1.1000E-09  1.1000E-09  1.2000E-09  5.0000E-09   0.000       0.000       0.000       0.000       0.000    
  12   1.1000E-09  1.1000E-09  1.1000E-09  1.1000E-09  2.0000E-09   0.000       0.000       0.000       0.000       0.000    
  13   1.1000E-09  2.2000E-09  2.2000E-09  2.1000E-09  1.0000E-09   0.000       0.000       0.000       0.000       0.000    
  14   2.0000E-10  5.5000E-09  5.5000E-09  5.2000E-09  1.0000E-09   0.000       0.000       0.000       0.000       0.000    
  15    0.000      8.8000E-09  8.8000E-09   0.000       0.000       0.000       0.000       0.000       0.000       0.000    

                  ET RATE =  7.500000E-08

 USING ET EXTINCTION DEPTH FROM PREVIOUS STRESS PERIOD. CURRENT PERIOD IS:      10

 USING EXTINCTION WATER CONTENT FROM PREVIOUS STRESS PERIOD. CURRENT PERIOD IS:      10

 USING AIR ENTRY PRESSURE FROM PREVIOUS STRESS PERIOD. CURRENT PERIOD IS:      10

 USING ROOT PRESSURE HEAD FROM PREVIOUS STRESS PERIOD. CURRENT PERIOD IS:      10

 USING ROOT ACTIVITY FROM PREVIOUS STRESS PERIOD. CURRENT PERIOD IS:      10

 PROCESSING AG STRESS PERIOD DATA

 READING AG STRESS PERIOD DATA

 READING IRRIGATION WELL

 END PROCESSING AG STRESS PERIOD DATA OPTIONS
 
 SOLVING FOR HEAD 
                                                   Max.-Head-Change                         Max.-Flux-Residual
  Residual-Control   Outer-Iter.   Inner-Iter.     Column Row Layer    Maximum-Head-Change  Column Row Layer    Maximum-Flux-Residual          L2-NORM 
          0                 1           2             5    8     1       0.6751049751E-01       5    8    1         0.3682094437E+01      0.9991079397E+01
          0                 2           2             5    8     1      -0.6566805035E-02       5    8    1        -0.3682007585E+00      0.9990590092E+00
          0                 3           2             5    8     1       0.4471763047E-03       5    8    1         0.2577414640E-01      0.6993234327E-01
          0                 4           1             5    8     1      -0.1779355836E-04       5    8    1        -0.1054163673E-02      0.2860125028E-02

    ------------------------------------------------
       NWT REQUIRED            4 OUTER ITERATIONS 
       AND A TOTAL OF          7 INNER ITERATIONS.
    ------------------------------------------------

 NO OUTPUT CONTROL FOR STRESS PERIOD   10   TIME STEP    1
 
 SOLVING FOR HEAD 
                                                   Max.-Head-Change                         Max.-Flux-Residual
  Residual-Control   Outer-Iter.   Inner-Iter.     Column Row Layer    Maximum-Head-Change  Column Row Layer    Maximum-Flux-Residual          L2-NORM 
          0                 1           2             5    6     1       0.6436623864E-01       5    8    1         0.3507456679E+01      0.9676039178E+01
          0                 2           2             5    6     1      -0.6260957273E-02       5    8    1        -0.3507374988E+00      0.9675698096E+00
          0                 3           2             5    6     1       0.4263491781E-03       5    8    1         0.2455171281E-01      0.6772910468E-01
          0                 4           1             5    6     1      -0.1696479357E-04       5    8    1        -0.1004166095E-02      0.2770049014E-02

    ------------------------------------------------
       NWT REQUIRED            4 OUTER ITERATIONS 
       AND A TOTAL OF          7 INNER ITERATIONS.
    ------------------------------------------------

 NO OUTPUT CONTROL FOR STRESS PERIOD   10   TIME STEP    2
 
 SOLVING FOR HEAD 
                                                   Max.-Head-Change                         Max.-Flux-Residual
  Residual-Control   Outer-Iter.   Inner-Iter.     Column Row Layer    Maximum-Head-Change  Column Row Layer    Maximum-Flux-Residual          L2-NORM 
          0                 1           2             5    6     1       0.6156012844E-01       5    6    1         0.3345141503E+01      0.9368231889E+01
          0                 2           2             5    6     1      -0.5988007795E-02       5    6    1        -0.3345062705E+00      0.9367919488E+00
          0                 3           2             5    6     1       0.4077622467E-03       5    6    1         0.2341552361E-01      0.6557468111E-01
          0                 4           1             5    6     1      -0.1622520292E-04       5    6    1        -0.9576958869E-03      0.2681935059E-02

    ------------------------------------------------
       NWT REQUIRED            4 OUTER ITERATIONS 
       AND A TOTAL OF          7 INNER ITERATIONS.
    ------------------------------------------------

 NO OUTPUT CONTROL FOR STRESS PERIOD   10   TIME STEP    3
 
 SOLVING FOR HEAD 
                                                   Max.-Head-Change                         Max.-Flux-Residual
  Residual-Control   Outer-Iter.   Inner-Iter.     Column Row Layer    Maximum-Head-Change  Column Row Layer    Maximum-Flux-Residual          L2-NORM 
          0                 1           2             5    6     1       0.5891405929E-01       5    6    1         0.3199313491E+01      0.9076991048E+01
          0                 2           2             5    6     1      -0.5730625274E-02       5    6    1        -0.3199240122E+00      0.9076704975E+00
          0                 3           2             5    6     1       0.3902353745E-03       5    6    1         0.2239475993E-01      0.6353621825E-01
          0                 4           1             5    6     1      -0.1552779319E-04       5    6    1        -0.9159466299E-03      0.2598555335E-02

    ------------------------------------------------
       NWT REQUIRED            4 OUTER ITERATIONS 
       AND A TOTAL OF          7 INNER ITERATIONS.
    ------------------------------------------------

 NO OUTPUT CONTROL FOR STRESS PERIOD   10   TIME STEP    4
 
 SOLVING FOR HEAD 
                                                   Max.-Head-Change                         Max.-Flux-Residual
  Residual-Control   Outer-Iter.   Inner-Iter.     Column Row Layer    Maximum-Head-Change  Column Row Layer    Maximum-Flux-Residual          L2-NORM 
          0                 1           2             5    6     1       0.5641724323E-01       5    6    1         0.3061799457E+01      0.8801122315E+01
          0                 2           2             5    6     1      -0.5487760396E-02       5    6    1        -0.3061731093E+00      0.8800860710E+00
          0                 3           2             5    6     1       0.3736971061E-03       5    6    1         0.2143219161E-01      0.6160538061E-01
          0                 4           1             5    6     1      -0.1486972095E-04       5    6    1        -0.8765775417E-03      0.2519604313E-02

    ------------------------------------------------
       NWT REQUIRED            4 OUTER ITERATIONS 
       AND A TOTAL OF          7 INNER ITERATIONS.
    ------------------------------------------------

 NO OUTPUT CONTROL FOR STRESS PERIOD   10   TIME STEP    5
 
 SOLVING FOR HEAD 
                                                   Max.-Head-Change                         Max.-Flux-Residual
  Residual-Control   Outer-Iter.   Inner-Iter.     Column Row Layer    Maximum-Head-Change  Column Row Layer    Maximum-Flux-Residual          L2-NORM 
          0                 1           2             5    6     1       0.5405958629E-01       5    6    1         0.2932032220E+01      0.8539516556E+01
          0                 2           2             5    6     1      -0.5258431345E-02       5    6    1        -0.2931968475E+00      0.8539277406E+00
          0                 3           2             5    6     1       0.3580805822E-03       5    6    1         0.2052384850E-01      0.5977433218E-01
          0                 4           1             5    6     1      -0.1424832595E-04       5    6    1        -0.8394262820E-03      0.2444718508E-02

    ------------------------------------------------
       NWT REQUIRED            4 OUTER ITERATIONS 
       AND A TOTAL OF          7 INNER ITERATIONS.
    ------------------------------------------------

 NO OUTPUT CONTROL FOR STRESS PERIOD   10   TIME STEP    6
 
 SOLVING FOR HEAD 
                                                   Max.-Head-Change                         Max.-Flux-Residual
  Residual-Control   Outer-Iter.   Inner-Iter.     Column Row Layer    Maximum-Head-Change  Column Row Layer    Maximum-Flux-Residual          L2-NORM 
          0                 1           2             5    7     1       0.5274995969E-01       5    6    1         0.2809504821E+01      0.8291180619E+01
          0                 2           2             5    7     1      -0.5131086491E-02       5    6    1        -0.2809445339E+00      0.8291127926E+00
          0                 3           2             5    7     1       0.3494084189E-03       5    6    1         0.1966618214E-01      0.5803734648E-01
          0                 4           1             5    7     1      -0.1390328772E-04       5    6    1        -0.8043477078E-03      0.2373688903E-02

    ------------------------------------------------
       NWT REQUIRED            4 OUTER ITERATIONS 
       AND A TOTAL OF          7 INNER ITERATIONS.
    ------------------------------------------------

 NO OUTPUT CONTROL FOR STRESS PERIOD   10   TIME STEP    7
 
 SOLVING FOR HEAD 
                                                   Max.-Head-Change                         Max.-Flux-Residual
  Residual-Control   Outer-Iter.   Inner-Iter.     Column Row Layer    Maximum-Head-Change  Column Row Layer    Maximum-Flux-Residual          L2-NORM 
          0                 1           2             5    7     1       0.5150247299E-01       5    7    1         0.2741308162E+01      0.8055174252E+01
          0                 2           2             5    7     1      -0.5009745843E-02       5    7    1        -0.2741281399E+00      0.8054974849E+00
          0                 3           2             5    7     1       0.3411455146E-03       5    7    1         0.1918900340E-01      0.5638431368E-01
          0                 4           1             5    7     1      -0.1357449976E-04       5    7    1        -0.7848312200E-03      0.2306083920E-02

    ------------------------------------------------
       NWT REQUIRED            4 OUTER ITERATIONS 
       AND A TOTAL OF          7 INNER ITERATIONS.
    ------------------------------------------------

 NO OUTPUT CONTROL FOR STRESS PERIOD   10   TIME STEP    8
 
 SOLVING FOR HEAD 
                                                   Max.-Head-Change                         Max.-Flux-Residual
  Residual-Control   Outer-Iter.   Inner-Iter.     Column Row Layer    Maximum-Head-Change  Column Row Layer    Maximum-Flux-Residual          L2-NORM 
          0                 1           2             5    7     1       0.5028101019E-01       5    7    1         0.2676487982E+01      0.7830664094E+01
          0                 2           2             5    7     1      -0.4890935882E-02       5    7    1        -0.2676464633E+00      0.7830481637E+00
          0                 3           2             5    7     1       0.3330549472E-03       5    7    1         0.1873528262E-01      0.5481289588E-01
          0                 4           1             5    7     1      -0.1325256856E-04       5    7    1        -0.7662740263E-03      0.2241819721E-02

    ------------------------------------------------
       NWT REQUIRED            4 OUTER ITERATIONS 
       AND A TOTAL OF          7 INNER ITERATIONS.
    ------------------------------------------------

 NO OUTPUT CONTROL FOR STRESS PERIOD   10   TIME STEP    9
 
 SOLVING FOR HEAD 
                                                   Max.-Head-Change                         Max.-Flux-Residual
  Residual-Control   Outer-Iter.   Inner-Iter.     Column Row Layer    Maximum-Head-Change  Column Row Layer    Maximum-Flux-Residual          L2-NORM 
          0                 1           2             4    7     1       0.4914650849E-01       5    7    1         0.2613016880E+01      0.7616894470E+01
          0                 2           2             4    7     1      -0.4780600653E-02       5    7    1        -0.2612996528E+00      0.7616727833E+00
          0                 3           2             4    7     1       0.3255413229E-03       5    7    1         0.1829100285E-01      0.5331666209E-01
          0                 4           1             4    7     1      -0.1295359289E-04       5    7    1        -0.7481029711E-03      0.2180619118E-02

    ------------------------------------------------
       NWT REQUIRED            4 OUTER ITERATIONS 
       AND A TOTAL OF          7 INNER ITERATIONS.
    ------------------------------------------------

 NO OUTPUT CONTROL FOR STRESS PERIOD   10   TIME STEP   10
 
 SOLVING FOR HEAD 
                                                   Max.-Head-Change                         Max.-Flux-Residual
  Residual-Control   Outer-Iter.   Inner-Iter.     Column Row Layer    Maximum-Head-Change  Column Row Layer    Maximum-Flux-Residual          L2-NORM 
          0                 1           2             4    7     1       0.4869224989E-01       4    7    1         0.2553281573E+01      0.7413139818E+01
          0                 2           2             4    7     1      -0.4736417725E-02       4    7    1        -0.2553275532E+00      0.7412987577E+00
          0                 3           2             4    7     1       0.3225325893E-03       4    7    1         0.1787294215E-01      0.5189051659E-01
          0                 4           1             4    7     1      -0.1283387239E-04       4    7    1        -0.7310043009E-03      0.2122287028E-02

    ------------------------------------------------
       NWT REQUIRED            4 OUTER ITERATIONS 
       AND A TOTAL OF          7 INNER ITERATIONS.
    ------------------------------------------------

 NO OUTPUT CONTROL FOR STRESS PERIOD   10   TIME STEP   11
 
 SOLVING FOR HEAD 
                                                   Max.-Head-Change                         Max.-Flux-Residual
  Residual-Control   Outer-Iter.   Inner-Iter.     Column Row Layer    Maximum-Head-Change  Column Row Layer    Maximum-Flux-Residual          L2-NORM 
          0                 1           2             4    7     1       0.4821329450E-01       4    7    1         0.2529690143E+01      0.7218746646E+01
          0                 2           2             4    7     1      -0.4689832024E-02       4    7    1        -0.2529686472E+00      0.7218607504E+00
          0                 3           2             4    7     1       0.3193602413E-03       4    7    1         0.1770781642E-01      0.5052988440E-01
          0                 4           1             4    7     1      -0.1270764235E-04       4    7    1        -0.7242506945E-03      0.2066641865E-02

    ------------------------------------------------
       NWT REQUIRED            4 OUTER ITERATIONS 
       AND A TOTAL OF          7 INNER ITERATIONS.
    ------------------------------------------------

 NO OUTPUT CONTROL FOR STRESS PERIOD   10   TIME STEP   12
 
 SOLVING FOR HEAD 
                                                   Max.-Head-Change                         Max.-Flux-Residual
  Residual-Control   Outer-Iter.   Inner-Iter.     Column Row Layer    Maximum-Head-Change  Column Row Layer    Maximum-Flux-Residual          L2-NORM 
          0                 1           2             4    7     1       0.4771220566E-01       4    7    1         0.2504817494E+01      0.7033117465E+01
          0                 2           2             4    7     1      -0.4641092935E-02       4    7    1        -0.2504815923E+00      0.7032990378E+00
          0                 3           2             4    7     1       0.3160412586E-03       4    7    1         0.1753372050E-01      0.4923060968E-01
          0                 4           1             4    7     1      -0.1257557706E-04       4    7    1        -0.7171301709E-03      0.2013510986E-02

    ------------------------------------------------
       NWT REQUIRED            4 OUTER ITERATIONS 
       AND A TOTAL OF          7 INNER ITERATIONS.
    ------------------------------------------------

 NO OUTPUT CONTROL FOR STRESS PERIOD   10   TIME STEP   13
 
 SOLVING FOR HEAD 
                                                   Max.-Head-Change                         Max.-Flux-Residual
  Residual-Control   Outer-Iter.   Inner-Iter.     Column Row Layer    Maximum-Head-Change  Column Row Layer    Maximum-Flux-Residual          L2-NORM 
          0                 1           2             4    7     1       0.4719138220E-01       4    7    1         0.2478796531E+01      0.6855683815E+01
          0                 2           2             4    7     1      -0.4590433836E-02       4    7    1        -0.2478796816E+00      0.6855567748E+00
          0                 3           2             4    7     1       0.3125915341E-03       4    7    1         0.1735158493E-01      0.4798868083E-01
          0                 4           1             4    7     1      -0.1243830915E-04       4    7    1        -0.7096808126E-03      0.1962721408E-02

    ------------------------------------------------
       NWT REQUIRED            4 OUTER ITERATIONS 
       AND A TOTAL OF          7 INNER ITERATIONS.
    ------------------------------------------------

 NO OUTPUT CONTROL FOR STRESS PERIOD   10   TIME STEP   14
 
 SOLVING FOR HEAD 
                                                   Max.-Head-Change                         Max.-Flux-Residual
  Residual-Control   Outer-Iter.   Inner-Iter.     Column Row Layer    Maximum-Head-Change  Column Row Layer    Maximum-Flux-Residual          L2-NORM 
          0                 1           2             4    7     1       0.4665293851E-01       4    7    1         0.2451744468E+01      0.6685946065E+01
          0                 2           2             4    7     1      -0.4538060434E-02       4    7    1        -0.2451746387E+00      0.6685839428E+00
          0                 3           2             4    7     1       0.3090250753E-03       4    7    1         0.1716223030E-01      0.4680058844E-01
          0                 4           1             4    7     1      -0.1229639689E-04       4    7    1        -0.7019362035E-03      0.1914133912E-02

    ------------------------------------------------
       NWT REQUIRED            4 OUTER ITERATIONS 
       AND A TOTAL OF          7 INNER ITERATIONS.
    ------------------------------------------------

 NO OUTPUT CONTROL FOR STRESS PERIOD   10   TIME STEP   15
 
 SOLVING FOR HEAD 
                                                   Max.-Head-Change                         Max.-Flux-Residual
  Residual-Control   Outer-Iter.   Inner-Iter.     Column Row Layer    Maximum-Head-Change  Column Row Layer    Maximum-Flux-Residual          L2-NORM 
          0                 1           2             4    7     1       0.4609897760E-01       4    7    1         0.2423778093E+01      0.6523411623E+01
          0                 2           2             4    7     1      -0.4484177328E-02       4    7    1        -0.2423781445E+00      0.6523314165E+00
          0                 3           2             4    7     1       0.3053558144E-03       4    7    1         0.1696647427E-01      0.4566293791E-01
          0                 4           1             4    7     1      -0.1215039391E-04       4    7    1        -0.6939297814E-03      0.1867590783E-02

    ------------------------------------------------
       NWT REQUIRED            4 OUTER ITERATIONS 
       AND A TOTAL OF          7 INNER ITERATIONS.
    ------------------------------------------------

 NO OUTPUT CONTROL FOR STRESS PERIOD   10   TIME STEP   16
 
 SOLVING FOR HEAD 
                                                   Max.-Head-Change                         Max.-Flux-Residual
  Residual-Control   Outer-Iter.   Inner-Iter.     Column Row Layer    Maximum-Head-Change  Column Row Layer    Maximum-Flux-Residual          L2-NORM 
          0                 1           2             4    7     1       0.4553133414E-01       4    7    1         0.2394999400E+01      0.6367656936E+01
          0                 2           2             4    7     1      -0.4428963009E-02       4    7    1        -0.2395004003E+00      0.6367567877E+00
          0                 3           2             4    7     1       0.3015959053E-03       4    7    1         0.1676503091E-01      0.4457273448E-01
          0                 4           1             4    7     1      -0.1200078329E-04       4    7    1        -0.6856907323E-03      0.1822998094E-02

    ------------------------------------------------
       NWT REQUIRED            4 OUTER ITERATIONS 
       AND A TOTAL OF          7 INNER ITERATIONS.
    ------------------------------------------------

 NO OUTPUT CONTROL FOR STRESS PERIOD   10   TIME STEP   17
 
 SOLVING FOR HEAD 
                                                   Max.-Head-Change                         Max.-Flux-Residual
  Residual-Control   Outer-Iter.   Inner-Iter.     Column Row Layer    Maximum-Head-Change  Column Row Layer    Maximum-Flux-Residual          L2-NORM 
          0                 1           2             4    7     1       0.4495197768E-01       4    7    1         0.2365517959E+01      0.6218270337E+01
          0                 2           2             4    7     1      -0.4372609086E-02       4    7    1        -0.2365523650E+00      0.6218188653E+00
          0                 3           2             4    7     1       0.2977583957E-03       4    7    1         0.1655866731E-01      0.4352711194E-01
          0                 4           1             4    7     1      -0.1184808552E-04       4    7    1        -0.6772504635E-03      0.1780260553E-02

    ------------------------------------------------
       NWT REQUIRED            4 OUTER ITERATIONS 
       AND A TOTAL OF          7 INNER ITERATIONS.
    ------------------------------------------------

 NO OUTPUT CONTROL FOR STRESS PERIOD   10   TIME STEP   18
 
 SOLVING FOR HEAD 
                                                   Max.-Head-Change                         Max.-Flux-Residual
  Residual-Control   Outer-Iter.   Inner-Iter.     Column Row Layer    Maximum-Head-Change  Column Row Layer    Maximum-Flux-Residual          L2-NORM 
          0                 1           2             4    7     1       0.4436261719E-01       4    7    1         0.2335428964E+01      0.6074885942E+01
          0                 2           2             4    7     1      -0.4324296998E-02       4    7    1        -0.2341145305E+00      0.6075114170E+00
          0                 3           2             4    7     1       0.2944684920E-03       4    7    1         0.1638801685E-01      0.4252558568E-01
          0                 4           1             4    7     1      -0.1171717738E-04       4    7    1        -0.6702708624E-03      0.1739273440E-02

    ------------------------------------------------
       NWT REQUIRED            4 OUTER ITERATIONS 
       AND A TOTAL OF          7 INNER ITERATIONS.
    ------------------------------------------------

 NO OUTPUT CONTROL FOR STRESS PERIOD   10   TIME STEP   19
 
 SOLVING FOR HEAD 
                                                   Max.-Head-Change                         Max.-Flux-Residual
  Residual-Control   Outer-Iter.   Inner-Iter.     Column Row Layer    Maximum-Head-Change  Column Row Layer    Maximum-Flux-Residual          L2-NORM 
          0                 1           2             4    7     1       0.4374494819E-01       4    7    1         0.2304332727E+01      0.5937114100E+01
          0                 2           2             4    7     1      -0.4255201851E-02       4    7    1        -0.2304341002E+00      0.5937045282E+00
          0                 3           2             4    7     1       0.2897633609E-03       4    7    1         0.1613038614E-01      0.4155913303E-01
          0                 4           1             4    7     1      -0.1152995561E-04       4    7    1        -0.6597337513E-03      0.1699764824E-02

    ------------------------------------------------
       NWT REQUIRED            4 OUTER ITERATIONS 
       AND A TOTAL OF          7 INNER ITERATIONS.
    ------------------------------------------------

 NO OUTPUT CONTROL FOR STRESS PERIOD   10   TIME STEP   20
 
 SOLVING FOR HEAD 
                                                   Max.-Head-Change                         Max.-Flux-Residual
  Residual-Control   Outer-Iter.   Inner-Iter.     Column Row Layer    Maximum-Head-Change  Column Row Layer    Maximum-Flux-Residual          L2-NORM 
          0                 1           2             4    7     1       0.4312954483E-01       4    7    1         0.2272722309E+01      0.5804656136E+01
          0                 2           2             4    7     1      -0.4195341003E-02       4    7    1        -0.2272731310E+00      0.5804592963E+00
          0                 3           2             4    7     1       0.2856870483E-03       4    7    1         0.1590911753E-01      0.4063198220E-01
          0                 4           1             4    7     1      -0.1136775544E-04       4    7    1        -0.6506838536E-03      0.1661833590E-02

    ------------------------------------------------
       NWT REQUIRED            4 OUTER ITERATIONS 
       AND A TOTAL OF          7 INNER ITERATIONS.
    ------------------------------------------------

 NO OUTPUT CONTROL FOR STRESS PERIOD   10   TIME STEP   21
 
 SOLVING FOR HEAD 
                                                   Max.-Head-Change                         Max.-Flux-Residual
  Residual-Control   Outer-Iter.   Inner-Iter.     Column Row Layer    Maximum-Head-Change  Column Row Layer    Maximum-Flux-Residual          L2-NORM 
          0                 1           2             4    7     1       0.4250881468E-01       4    7    1         0.2240762731E+01      0.5677217571E+01
          0                 2           2             4    7     1      -0.4134961835E-02       4    7    1        -0.2240772347E+00      0.5677159664E+00
          0                 3           2             4    7     1       0.2815754416E-03       4    7    1         0.1568540411E-01      0.3973997803E-01
          0                 4           1             4    7     1      -0.1120415072E-04       4    7    1        -0.6415339681E-03      0.1625369636E-02

    ------------------------------------------------
       NWT REQUIRED            4 OUTER ITERATIONS 
       AND A TOTAL OF          7 INNER ITERATIONS.
    ------------------------------------------------

 NO OUTPUT CONTROL FOR STRESS PERIOD   10   TIME STEP   22
 
 SOLVING FOR HEAD 
                                                   Max.-Head-Change                         Max.-Flux-Residual
  Residual-Control   Outer-Iter.   Inner-Iter.     Column Row Layer    Maximum-Head-Change  Column Row Layer    Maximum-Flux-Residual          L2-NORM 
          0                 1           2             4    7     1       0.4188379209E-01       4    7    1         0.2208512382E+01      0.5554531973E+01
          0                 2           2             4    7     1      -0.4074191716E-02       4    7    1        -0.2208522511E+00      0.5554578548E+00
          0                 3           2             4    7     1       0.2774372138E-03       4    7    1         0.1545965469E-01      0.3888189908E-01
          0                 4           1             4    7     1      -0.1103948682E-04       4    7    1        -0.6323008090E-03      0.1590257962E-02

    ------------------------------------------------
       NWT REQUIRED            4 OUTER ITERATIONS 
       AND A TOTAL OF          7 INNER ITERATIONS.
    ------------------------------------------------

 NO OUTPUT CONTROL FOR STRESS PERIOD   10   TIME STEP   23
 
 SOLVING FOR HEAD 
                                                   Max.-Head-Change                         Max.-Flux-Residual
  Residual-Control   Outer-Iter.   Inner-Iter.     Column Row Layer    Maximum-Head-Change  Column Row Layer    Maximum-Flux-Residual          L2-NORM 
          0                 1           2             4    7     1       0.4125567715E-01       4    7    1         0.2176044727E+01      0.5436324867E+01
          0                 2           2             4    7     1      -0.4013067217E-02       4    7    1        -0.2176055282E+00      0.5436275702E+00
          0                 3           2             4    7     1       0.2732748551E-03       4    7    1         0.1523238356E-01      0.3805380723E-01
          0                 4           1             4    7     1      -0.1087386276E-04       4    7    1        -0.6230053962E-03      0.1556399270E-02

    ------------------------------------------------
       NWT REQUIRED            4 OUTER ITERATIONS 
       AND A TOTAL OF          7 INNER ITERATIONS.
    ------------------------------------------------

 NO OUTPUT CONTROL FOR STRESS PERIOD   10   TIME STEP   24
 
 SOLVING FOR HEAD 
                                                   Max.-Head-Change                         Max.-Flux-Residual
  Residual-Control   Outer-Iter.   Inner-Iter.     Column Row Layer    Maximum-Head-Change  Column Row Layer    Maximum-Flux-Residual          L2-NORM 
          0                 1           2             4    7     1       0.4062553726E-01       4    7    1         0.2143412166E+01      0.5322342464E+01
          0                 2           2             4    7     1      -0.3951772328E-02       4    7    1        -0.2143423063E+00      0.5322297079E+00
          0                 3           2             4    7     1       0.2691008953E-03       4    7    1         0.1500395761E-01      0.3725595643E-01
          0                 4           1             4    7     1      -0.1070777715E-04       4    7    1        -0.6136627790E-03      0.1523761061E-02

    ------------------------------------------------
       NWT REQUIRED            4 OUTER ITERATIONS 
       AND A TOTAL OF          7 INNER ITERATIONS.
    ------------------------------------------------

 NO OUTPUT CONTROL FOR STRESS PERIOD   10   TIME STEP   25
 
 SOLVING FOR HEAD 
                                                   Max.-Head-Change                         Max.-Flux-Residual
  Residual-Control   Outer-Iter.   Inner-Iter.     Column Row Layer    Maximum-Head-Change  Column Row Layer    Maximum-Flux-Residual          L2-NORM 
          0                 1           2             4    7     1       0.3999450701E-01       4    7    1         0.2110679989E+01      0.5212390958E+01
          0                 2           2             4    7     1      -0.3890390720E-02       4    7    1        -0.2110691154E+00      0.5212349066E+00
          0                 3           2             4    7     1       0.2649210310E-03       4    7    1         0.1477483389E-01      0.3648633179E-01
          0                 4           1             4    7     1      -0.1054145633E-04       4    7    1        -0.6042916002E-03      0.1492284042E-02

    ------------------------------------------------
       NWT REQUIRED            4 OUTER ITERATIONS 
       AND A TOTAL OF          7 INNER ITERATIONS.
    ------------------------------------------------

 NO OUTPUT CONTROL FOR STRESS PERIOD   10   TIME STEP   26
 
 SOLVING FOR HEAD 
                                                   Max.-Head-Change                         Max.-Flux-Residual
  Residual-Control   Outer-Iter.   Inner-Iter.     Column Row Layer    Maximum-Head-Change  Column Row Layer    Maximum-Flux-Residual          L2-NORM 
          0                 1           2             4    7     1       0.3936353191E-01       4    7    1         0.2077901515E+01      0.5106254247E+01
          0                 2           2             4    7     1      -0.3829014376E-02       4    7    1        -0.2077912883E+00      0.5106215376E+00
          0                 3           2             4    7     1       0.2607415265E-03       4    7    1         0.1454538571E-01      0.3574339577E-01
          0                 4           1             4    7     1      -0.1037515014E-04       4    7    1        -0.5949071615E-03      0.1461894850E-02

    ------------------------------------------------
       NWT REQUIRED            4 OUTER ITERATIONS 
       AND A TOTAL OF          7 INNER ITERATIONS.
    ------------------------------------------------

 NO OUTPUT CONTROL FOR STRESS PERIOD   10   TIME STEP   27
 
 SOLVING FOR HEAD 
                                                   Max.-Head-Change                         Max.-Flux-Residual
  Residual-Control   Outer-Iter.   Inner-Iter.     Column Row Layer    Maximum-Head-Change  Column Row Layer    Maximum-Flux-Residual          L2-NORM 
          0                 1           2             4    7     1       0.3873334036E-01       4    7    1         0.2045118361E+01      0.5003752148E+01
          0                 2           2             4    7     1      -0.3767714162E-02       4    7    1        -0.2045129871E+00      0.5003716280E+00
          0                 3           2             4    7     1       0.2565672068E-03       4    7    1         0.1431590439E-01      0.3502591877E-01
          0                 4           1             4    7     1      -0.1020904991E-04       4    7    1        -0.5855213578E-03      0.1432550540E-02

    ------------------------------------------------
       NWT REQUIRED            4 OUTER ITERATIONS 
       AND A TOTAL OF          7 INNER ITERATIONS.
    ------------------------------------------------

 NO OUTPUT CONTROL FOR STRESS PERIOD   10   TIME STEP   28
 
 SOLVING FOR HEAD 
                                                   Max.-Head-Change                         Max.-Flux-Residual
  Residual-Control   Outer-Iter.   Inner-Iter.     Column Row Layer    Maximum-Head-Change  Column Row Layer    Maximum-Flux-Residual          L2-NORM 
          0                 1           2             4    7     1       0.3810486100E-01       4    7    1         0.2012382754E+01      0.4904693066E+01
          0                 2           2             4    7     1      -0.3706580416E-02       4    7    1        -0.2012394353E+00      0.4904666918E+00
          0                 3           2             4    7     1       0.2524042238E-03       4    7    1         0.1408675557E-01      0.3433507691E-01
          0                 4           1             4    7     1      -0.1004340098E-04       4    7    1        -0.5761491645E-03      0.1404283737E-02

    ------------------------------------------------
       NWT REQUIRED            4 OUTER ITERATIONS 
       AND A TOTAL OF          7 INNER ITERATIONS.
    ------------------------------------------------

 NO OUTPUT CONTROL FOR STRESS PERIOD   10   TIME STEP   29
 
 SOLVING FOR HEAD 
                                                   Max.-Head-Change                         Max.-Flux-Residual
  Residual-Control   Outer-Iter.   Inner-Iter.     Column Row Layer    Maximum-Head-Change  Column Row Layer    Maximum-Flux-Residual          L2-NORM 
          0                 1           2             4    7     1       0.3747881425E-01       4    7    1         0.1979735790E+01      0.4808917730E+01
          0                 2           2             4    7     1      -0.3645683227E-02       4    7    1        -0.1979747431E+00      0.4808886833E+00
          0                 3           2             4    7     1       0.2482573501E-03       4    7    1         0.1385822699E-01      0.3366213061E-01
          0                 4           1             4    7     1      -0.9878392965E-05       4    7    1        -0.5668023257E-03      0.1376781373E-02

    ------------------------------------------------
       NWT REQUIRED            4 OUTER ITERATIONS 
       AND A TOTAL OF          7 INNER ITERATIONS.
    ------------------------------------------------

 NO OUTPUT CONTROL FOR STRESS PERIOD   10   TIME STEP   30



 STREAM LISTING     PERIOD     10   STEP       30

 LAYER ROW COL. STREAM  RCH.  FLOW INTO     FLOW TO   FLOW OUT OF   OVRLND.     DIRECT     STREAM       STREAM     STREAM     STREAM   STREAMBED  STREAMBED
                SEG.NO.  NO.  STRM. RCH.    AQUIFER    STRM. RCH.    RUNOFF     PRECIP       ET          HEAD       DEPTH      WIDTH   CONDCTNC.   GRADIENT

   1    1    1     1     1    4.7000E+01  3.2684E-01   4.6673E+01  0.000E+00  0.000E+00  0.000E+00  1.09443E+03  1.380E+00  1.658E+01  7.462E-02  1.460E+00
   1    2    2     1     2    4.6673E+01  5.0637E-01   4.6166E+01  0.000E+00  0.000E+00  0.000E+00  1.08944E+03  1.377E+00  1.653E+01  1.157E-01  1.459E+00
   1    3    3     1     3    4.6166E+01  4.3205E-01   4.5734E+01  0.000E+00  0.000E+00  0.000E+00  1.08379E+03  1.374E+00  1.646E+01  9.878E-02  1.458E+00
   1    3    4     1     4    4.5734E+01  3.9802E-01   4.5336E+01  0.000E+00  0.000E+00  0.000E+00  1.07878E+03  1.371E+00  1.641E+01  9.105E-02  1.457E+00
   1    4    5     2     1    4.3336E+01  3.6469E-01   4.2972E+01  0.000E+00  0.000E+00  0.000E+00  1.07361E+03  1.676E+00  1.200E+01  7.800E-02  1.559E+00
   1    5    6     2     2    4.2972E+01  2.8008E-01   4.2692E+01  0.000E+00  0.000E+00  0.000E+00  1.06818E+03  1.668E+00  1.200E+01  6.000E-02  1.556E+00
   1    6    6     2     3    4.2692E+01  2.7969E-01   4.2412E+01  0.000E+00  0.000E+00  0.000E+00  1.06345E+03  1.661E+00  1.200E+01  6.000E-02  1.554E+00
   1    7    6     2     4    4.2412E+01  2.7930E-01   4.2133E+01  0.000E+00  0.000E+00  0.000E+00  1.05873E+03  1.655E+00  1.200E+01  6.000E-02  1.552E+00
   1    8    6     2     5    4.2133E+01  2.7890E-01   4.1854E+01  0.000E+00  0.000E+00  0.000E+00  1.05401E+03  1.648E+00  1.200E+01  6.000E-02  1.549E+00
   1    3    5     3     1    2.0000E+00  2.8252E-01   1.7175E+00  0.000E+00  0.000E+00  0.000E+00  1.07555E+03  1.909E+00  9.636E+00  7.227E-02  1.955E+00
   1    3    6     3     2    1.7175E+00  2.4905E-01   1.4684E+00  0.000E+00  0.000E+00  0.000E+00  1.07264E+03  1.727E+00  8.909E+00  6.682E-02  1.864E+00
   1    3    7     3     3    1.4684E+00  1.9718E-01   1.2712E+00  0.000E+00  0.000E+00  0.000E+00  1.06987E+03  1.555E+00  8.218E+00  5.547E-02  1.777E+00
   1    4    8     3     4    1.2712E+00  2.2567E-01   1.0456E+00  0.000E+00  0.000E+00  0.000E+00  1.06682E+03  1.364E+00  7.455E+00  6.709E-02  1.682E+00
   1    5    8     3     5    1.0456E+00  1.5790E-01   8.8768E-01  0.000E+00  0.000E+00  0.000E+00  1.06362E+03  1.164E+00  6.655E+00  4.991E-02  1.582E+00
   1    6    8     3     6    8.8768E-01  5.5980E-02   8.3170E-01  0.000E+00  0.000E+00  0.000E+00  1.06158E+03  1.036E+00  6.145E+00  1.844E-02  1.518E+00
   1    5   10     4     1    1.0000E+01  9.0919E-02   9.9091E+00  0.000E+00  0.000E+00  0.000E+00  1.07836E+03  6.368E-01  1.000E+01  2.500E-02  1.212E+00
   1    5    9     4     2    9.9091E+00  1.8158E-01   9.7275E+00  0.000E+00  0.000E+00  0.000E+00  1.07154E+03  6.315E-01  1.000E+01  5.000E-02  1.211E+00
   1    6    8     4     3    9.7275E+00  1.2689E-01   9.6006E+00  0.000E+00  0.000E+00  0.000E+00  1.06381E+03  6.256E-01  1.000E+01  3.500E-02  1.209E+00
   1    6    8     5     1    1.0432E+01  2.2686E-01   1.0205E+01  0.000E+00  0.000E+00  0.000E+00  1.05868E+03  6.790E-01  1.542E+01  6.166E-02  1.226E+00
   1    7    7     5     2    1.0205E+01  2.7894E-01   9.9265E+00  0.000E+00  0.000E+00  0.000E+00  1.05417E+03  6.732E-01  1.519E+01  7.594E-02  1.224E+00
   1    8    7     5     3    9.9265E+00  1.9221E-01   9.7343E+00  0.000E+00  0.000E+00  0.000E+00  1.04992E+03  6.676E-01  1.497E+01  5.241E-02  1.223E+00
   1    8    6     5     4    9.7343E+00  1.3577E-01   9.5985E+00  0.000E+00  0.000E+00  0.000E+00  1.04691E+03  6.637E-01  1.482E+01  3.706E-02  1.221E+00
   1    9    6     6     1    5.1452E+01  2.9278E-01   5.1159E+01  0.000E+00  0.000E+00  0.000E+00  1.04461E+03  1.880E+00  1.200E+01  6.000E-02  1.627E+00
   1   10    7     6     2    5.1159E+01  2.9239E-01   5.0867E+01  0.000E+00  0.000E+00  0.000E+00  1.04005E+03  1.873E+00  1.200E+01  6.000E-02  1.624E+00
   1   11    7     6     3    5.0867E+01  2.9200E-01   5.0575E+01  0.000E+00  0.000E+00  0.000E+00  1.03550E+03  1.867E+00  1.200E+01  6.000E-02  1.622E+00
   1   12    7     6     4    5.0575E+01  2.9162E-01   5.0283E+01  0.000E+00  0.000E+00  0.000E+00  1.03095E+03  1.860E+00  1.200E+01  6.000E-02  1.620E+00
   1   13    7     6     5    5.0283E+01  1.2606E-02   5.0271E+01  0.000E+00  0.000E+00  0.000E+00  1.02777E+03  1.857E+00  1.200E+01  2.400E-02  1.751E-01
   1   14    9     7     1    1.5000E+02  1.3307E+00   1.4867E+02  0.000E+00  0.000E+00  0.000E+00  1.03987E+03  2.288E+00  5.529E+01  5.593E-01  7.931E-01
   1   13    8     7     2    1.4867E+02  1.7940E+00   1.4688E+02  0.000E+00  0.000E+00  0.000E+00  1.03478E+03  2.279E+00  5.526E+01  6.148E-01  9.727E-01
   1   13    7     7     3    1.4688E+02  1.3680E+00   1.4551E+02  0.000E+00  0.000E+00  0.000E+00  1.02969E+03  2.271E+00  5.522E+01  5.585E-01  8.165E-01
   1   13    6     8     1    1.9578E+02  9.1769E-01   1.9486E+02  0.000E+00  0.000E+00  0.000E+00  1.02498E+03  3.110E+00  4.509E+01  4.595E-01  6.657E-01
   1   13    5     8     2    1.9486E+02  1.4180E-01   1.9472E+02  0.000E+00  0.000E+00  0.000E+00  1.01873E+03  3.107E+00  4.505E+01  4.591E-01  1.030E-01
   1   13    4     8     3    1.9472E+02 -2.5023E+00   1.9722E+02  0.000E+00  0.000E+00  0.000E+00  1.01249E+03  3.114E+00  4.515E+01  4.601E+00 -1.813E-01
   1   13    3     8     4    1.9722E+02 -3.6195E+00   2.0084E+02  0.000E+00  0.000E+00  0.000E+00  1.00626E+03  3.132E+00  4.541E+01  4.628E+00 -2.607E-01
   1   13    2     8     5    2.0084E+02 -2.5917E+00   2.0343E+02  0.000E+00  0.000E+00  0.000E+00  1.00003E+03  3.150E+00  4.568E+01  4.655E+00 -1.856E-01
   1   13    1     8     6    2.0343E+02 -2.0170E+00   2.0545E+02  0.000E+00  0.000E+00  0.000E+00  9.95039E+02  3.164E+00  4.587E+01  2.805E+00 -2.397E-01





UNSATURATED ZONE PACKAGE VOLUMETRIC BUDGET FOR  TIME STEP    30 STRESS PERIOD   10
  ------------------------------------------------------------------------------



     CUMULATIVE VOLUMES      L**3       RATES FOR THIS TIME STEP      L**3/T
     ------------------                 ------------------------

           IN:                                      IN:
           ---                                      ---
        INFILTRATION =   504227958.1970          INFILTRATION =          15.3480

          OUT:                                     OUT:
          ----                                     ----
              UZF ET =   484336344.4270                UZF ET =          15.3575
        UZF RECHARGE =       73224.0000          UZF RECHARGE =       0.0000E+00

            IN - OUT =    19818389.7700              IN - OUT =      -9.4751E-03

          STORAGE:                                 STORAGE:
          --------                                 --------
      STORAGE CHANGE =    19819084.9862        STORAGE CHANGE =      -9.4753E-03

 PERCENT DISCREPANCY IS DIFFERENCE BETWEEN IN-OUT MINUS CHANGE IN STORAGE
 DIVIDED BY THE AVERAGE OF IN AND OUT TIMES 100

 PERCENT DISCREPANCY =          -0.00     PERCENT DISCREPANCY =           0.00






1
  VOLUMETRIC BUDGET FOR ENTIRE MODEL AT END OF TIME STEP   30, STRESS PERIOD  10
  ------------------------------------------------------------------------------

     CUMULATIVE VOLUMES      L**3       RATES FOR THIS TIME STEP      L**3/T
     ------------------                 ------------------------

           IN:                                      IN:
           ---                                      ---
               AG WELLS  =   399829152.0000                 AG WELLS  =          10.9405
      DIVERSION SEGMENTS =           0.0000        DIVERSION SEGMENTS =           0.0000
           GW IRRIGATION =           0.0000             GW IRRIGATION =           0.0000
           SW IRRIGATION =           0.0000             SW IRRIGATION =           0.0000
        SYSTEM LOSSES GW =           0.0000          SYSTEM LOSSES GW =           0.0000
        SYSTEM LOSSES SW =           0.0000          SYSTEM LOSSES SW =           0.0000

                TOTAL IN =   399829152.0000                  TOTAL IN =          10.9405

          OUT:                                     OUT:
          ----                                     ----
               AG WELLS  =           0.0000                 AG WELLS  =           0.0000
      DIVERSION SEGMENTS =           0.0000        DIVERSION SEGMENTS =           0.0000
           GW IRRIGATION =   399829152.0000             GW IRRIGATION =          10.9405
           SW IRRIGATION =           0.0000             SW IRRIGATION =           0.0000
        SYSTEM LOSSES GW =           0.0000          SYSTEM LOSSES GW =           0.0000
        SYSTEM LOSSES SW =           0.0000          SYSTEM LOSSES SW =           0.0000

               TOTAL OUT =   399829152.0000                 TOTAL OUT =          10.9405

                IN - OUT =           0.0000                  IN - OUT =           0.0000

     PERCENT DISCREPANCY =           0.00         PERCENT DISCREPANCY =           0.00



1
  VOLUMETRIC BUDGET FOR ENTIRE MODEL AT END OF TIME STEP   30, STRESS PERIOD  10
  ------------------------------------------------------------------------------

     CUMULATIVE VOLUMES      L**3       RATES FOR THIS TIME STEP      L**3/T
     ------------------                 ------------------------

           IN:                                      IN:
           ---                                      ---
             STORAGE     =   436077216.0000               STORAGE     =          19.0758
       CONSTANT HEAD     =           0.0000         CONSTANT HEAD     =           0.0000
     HEAD DEP BOUNDS     =     6781339.5000       HEAD DEP BOUNDS     =           0.2854
      STREAM LEAKAGE     =   302957920.0000        STREAM LEAKAGE     =          12.2810
        UZF RECHARGE     =       73223.9531          UZF RECHARGE     =           0.0000
               GW ET     =           0.0000                 GW ET     =           0.0000
     SURFACE LEAKAGE     =           0.0000       SURFACE LEAKAGE     =           0.0000
           AG WELLS      =           0.0000             AG WELLS      =           0.0000

                TOTAL IN =   745889664.0000                  TOTAL IN =          31.6423

          OUT:                                     OUT:
          ----                                     ----
             STORAGE     =    84511104.0000               STORAGE     =           9.4148
       CONSTANT HEAD     =           0.0000         CONSTANT HEAD     =           0.0000
     HEAD DEP BOUNDS     =     7020282.5000       HEAD DEP BOUNDS     =           0.2948
      STREAM LEAKAGE     =   240961280.0000        STREAM LEAKAGE     =          10.7306
        UZF RECHARGE     =           0.0000          UZF RECHARGE     =           0.0000
               GW ET     =    13572315.0000                 GW ET     =           0.2617
     SURFACE LEAKAGE     =           0.0000       SURFACE LEAKAGE     =           0.0000
           AG WELLS      =   399829152.0000             AG WELLS      =          10.9405

               TOTAL OUT =   745894144.0000                 TOTAL OUT =          31.6423

                IN - OUT =       -4480.0000                  IN - OUT =      -2.8610E-05

     PERCENT DISCREPANCY =          -0.00         PERCENT DISCREPANCY =          -0.00






         TIME SUMMARY AT END OF TIME STEP   30 IN STRESS PERIOD   10
                    SECONDS     MINUTES      HOURS       DAYS        YEARS
                    -----------------------------------------------------------
   TIME STEP LENGTH  87667.      1461.1      24.352      1.0147     2.77799E-03
 STRESS PERIOD TIME 2.63000E+06  43833.      730.56      30.440     8.33397E-02
         TOTAL TIME 2.37564E+07 3.95940E+05  6599.0      274.96     0.75279    
1
1
                            STRESS PERIOD NO.   11, LENGTH =   2630000.    
                            -----------------------------------------------

                              NUMBER OF TIME STEPS =    30

                               MULTIPLIER FOR DELT =     1.000

                            INITIAL TIME STEP SIZE =   87666.66    

 REUSING NON-PARAMETER GHB CELLS FROM LAST STRESS PERIOD

      2 GHB CELLS

 REUSING STREAM SEGMENT DATA FROM LAST STRESS PERIOD



            AREAL INFILTRATION RATE
 READING ON UNIT   19 WITH FORMAT: (10F4.0)            

            1           2           3           4           5           6           7           8           9          10
 ........................................................................................................................
   1   1.2000E-09   0.000       0.000       0.000       0.000       0.000       0.000       0.000       0.000       0.000    
   2   2.1000E-09  2.0000E-09  8.0000E-10  8.5000E-09   0.000       0.000       0.000       0.000       0.000       0.000    
   3   5.0000E-10  1.1000E-09  8.8000E-09  5.5000E-09   0.000       0.000       0.000       0.000       0.000       0.000    
   4   8.5000E-09  1.1000E-09  1.1000E-09  1.1000E-09  2.0000E-09   0.000       0.000       0.000       0.000       0.000    
   5   8.5000E-09  1.1000E-09  1.1000E-09  1.1000E-09  1.1000E-09   0.000       0.000       0.000       0.000       0.000    
   6   8.5000E-09  5.2000E-09  2.1000E-09  1.1000E-09  1.5000E-09   0.000       0.000       0.000       0.000       0.000    
   7   8.5000E-09  5.2000E-09  2.1000E-09  1.2000E-09  2.0000E-09   0.000       0.000       0.000       0.000       0.000    
   8   5.0000E-10  5.2000E-09  2.1000E-09  1.2000E-09  5.0000E-09   0.000       0.000       0.000       0.000       0.000    
   9   5.0000E-10  5.2000E-09  2.1000E-09  1.2000E-09  5.0000E-09   0.000       0.000       0.000       0.000       0.000    
  10   5.0000E-10  5.2000E-09  2.1000E-09  1.2000E-09  5.8000E-09   0.000       0.000       0.000       0.000       0.000    
  11   1.0000E-10  1.1000E-09  1.1000E-09  1.2000E-09  5.0000E-09   0.000       0.000       0.000       0.000       0.000    
  12   1.1000E-09  1.1000E-09  1.1000E-09  1.1000E-09  2.0000E-09   0.000       0.000       0.000       0.000       0.000    
  13   1.1000E-09  2.2000E-09  2.2000E-09  2.1000E-09  1.0000E-09   0.000       0.000       0.000       0.000       0.000    
  14   2.0000E-10  5.5000E-09  5.5000E-09  5.2000E-09  1.0000E-09   0.000       0.000       0.000       0.000       0.000    
  15    0.000      8.8000E-09  8.8000E-09   0.000       0.000       0.000       0.000       0.000       0.000       0.000    

                  ET RATE =  5.000000E-09

 USING ET EXTINCTION DEPTH FROM PREVIOUS STRESS PERIOD. CURRENT PERIOD IS:      11

 USING EXTINCTION WATER CONTENT FROM PREVIOUS STRESS PERIOD. CURRENT PERIOD IS:      11

 USING AIR ENTRY PRESSURE FROM PREVIOUS STRESS PERIOD. CURRENT PERIOD IS:      11

 USING ROOT PRESSURE HEAD FROM PREVIOUS STRESS PERIOD. CURRENT PERIOD IS:      11

 USING ROOT ACTIVITY FROM PREVIOUS STRESS PERIOD. CURRENT PERIOD IS:      11

 PROCESSING AG STRESS PERIOD DATA

 READING AG STRESS PERIOD DATA

 READING IRRIGATION WELL

 END PROCESSING AG STRESS PERIOD DATA OPTIONS
 
 SOLVING FOR HEAD 
                                                   Max.-Head-Change                         Max.-Flux-Residual
  Residual-Control   Outer-Iter.   Inner-Iter.     Column Row Layer    Maximum-Head-Change  Column Row Layer    Maximum-Flux-Residual          L2-NORM 
          0                 1           2             4    7     1       0.7212980104E-01       4    7    1         0.3788897476E+01      0.8639420727E+01
          0                 2           2             4    7     1      -0.7016317230E-02       4    7    1        -0.3788934865E+00      0.8639349488E+00
          0                 3           2             4    7     1       0.4777846597E-03       4    7    1         0.2652252014E-01      0.6047494283E-01
          0                 4           1             4    7     1      -0.1901150096E-04       4    7    1        -0.1084772750E-02      0.2473235761E-02

    ------------------------------------------------
       NWT REQUIRED            4 OUTER ITERATIONS 
       AND A TOTAL OF          7 INNER ITERATIONS.
    ------------------------------------------------

 NO OUTPUT CONTROL FOR STRESS PERIOD   11   TIME STEP    1
 
 SOLVING FOR HEAD 
                                                   Max.-Head-Change                         Max.-Flux-Residual
  Residual-Control   Outer-Iter.   Inner-Iter.     Column Row Layer    Maximum-Head-Change  Column Row Layer    Maximum-Flux-Residual          L2-NORM 
          0                 1           2             4    7     1       0.7132448390E-01       4    7    1         0.3747709193E+01      0.8473847128E+01
          0                 2           2             4    7     1      -0.6937984053E-02       4    7    1        -0.3747748062E+00      0.8473438840E+00
          0                 3           2             4    7     1       0.4724504387E-03       4    7    1         0.2623421098E-01      0.5931056885E-01
          0                 4           1             4    7     1      -0.1879924700E-04       4    7    1        -0.1072980880E-02      0.2425565810E-02

    ------------------------------------------------
       NWT REQUIRED            4 OUTER ITERATIONS 
       AND A TOTAL OF          7 INNER ITERATIONS.
    ------------------------------------------------

 NO OUTPUT CONTROL FOR STRESS PERIOD   11   TIME STEP    2
 
 SOLVING FOR HEAD 
                                                   Max.-Head-Change                         Max.-Flux-Residual
  Residual-Control   Outer-Iter.   Inner-Iter.     Column Row Layer    Maximum-Head-Change  Column Row Layer    Maximum-Flux-Residual          L2-NORM 
          0                 1           2             4    7     1       0.7050855270E-01       4    7    1         0.3705867633E+01      0.8302500786E+01
          0                 2           2             4    7     1      -0.6858618058E-02       4    7    1        -0.3705907736E+00      0.8302152701E+00
          0                 3           2             4    7     1       0.4670458906E-03       4    7    1         0.2594132740E-01      0.5811193297E-01
          0                 4           1             4    7     1      -0.1858419543E-04       4    7    1        -0.1061001947E-02      0.2376572575E-02

    ------------------------------------------------
       NWT REQUIRED            4 OUTER ITERATIONS 
       AND A TOTAL OF          7 INNER ITERATIONS.
    ------------------------------------------------

 NO OUTPUT CONTROL FOR STRESS PERIOD   11   TIME STEP    3
 
 SOLVING FOR HEAD 
                                                   Max.-Head-Change                         Max.-Flux-Residual
  Residual-Control   Outer-Iter.   Inner-Iter.     Column Row Layer    Maximum-Head-Change  Column Row Layer    Maximum-Flux-Residual          L2-NORM 
          0                 1           2             4    7     1       0.6968398535E-01       4    7    1         0.3663483014E+01      0.8137568148E+01
          0                 2           2             4    7     1      -0.6778411669E-02       4    7    1        -0.3663524131E+00      0.8137263259E+00
          0                 3           2             4    7     1       0.4615841179E-03       4    7    1         0.2564464108E-01      0.5695811099E-01
          0                 4           1             4    7     1      -0.1836686653E-04       4    7    1        -0.1048867464E-02      0.2329420968E-02

    ------------------------------------------------
       NWT REQUIRED            4 OUTER ITERATIONS 
       AND A TOTAL OF          7 INNER ITERATIONS.
    ------------------------------------------------

 NO OUTPUT CONTROL FOR STRESS PERIOD   11   TIME STEP    4
 
 SOLVING FOR HEAD 
                                                   Max.-Head-Change                         Max.-Flux-Residual
  Residual-Control   Outer-Iter.   Inner-Iter.     Column Row Layer    Maximum-Head-Change  Column Row Layer    Maximum-Flux-Residual          L2-NORM 
          0                 1           2             4    7     1       0.6885222254E-01       4    7    1         0.3620636005E+01      0.7978654760E+01
          0                 2           2             4    7     1      -0.6697505055E-02       4    7    1        -0.3620677931E+00      0.7978386400E+00
          0                 3           2             4    7     1       0.4560746652E-03       4    7    1         0.2534471679E-01      0.5584622299E-01
          0                 4           1             4    7     1      -0.1814763998E-04       4    7    1        -0.1036600525E-02      0.2283909846E-02

    ------------------------------------------------
       NWT REQUIRED            4 OUTER ITERATIONS 
       AND A TOTAL OF          7 INNER ITERATIONS.
    ------------------------------------------------

 NO OUTPUT CONTROL FOR STRESS PERIOD   11   TIME STEP    5
 
 SOLVING FOR HEAD 
                                                   Max.-Head-Change                         Max.-Flux-Residual
  Residual-Control   Outer-Iter.   Inner-Iter.     Column Row Layer    Maximum-Head-Change  Column Row Layer    Maximum-Flux-Residual          L2-NORM 
          0                 1           2             4    7     1       0.6801486937E-01       4    7    1         0.3577415890E+01      0.7825405062E+01
          0                 2           2             4    7     1      -0.6616054377E-02       4    7    1        -0.3577458441E+00      0.7825169524E+00
          0                 3           2             4    7     1       0.4505281671E-03       4    7    1         0.2504217965E-01      0.5477393980E-01
          0                 4           1             4    7     1      -0.1792694002E-04       4    7    1        -0.1024226764E-02      0.2240078749E-02

    ------------------------------------------------
       NWT REQUIRED            4 OUTER ITERATIONS 
       AND A TOTAL OF          7 INNER ITERATIONS.
    ------------------------------------------------

 NO OUTPUT CONTROL FOR STRESS PERIOD   11   TIME STEP    6
 
 SOLVING FOR HEAD 
                                                   Max.-Head-Change                         Max.-Flux-Residual
  Residual-Control   Outer-Iter.   Inner-Iter.     Column Row Layer    Maximum-Head-Change  Column Row Layer    Maximum-Flux-Residual          L2-NORM 
          0                 1           2             4    7     1       0.6717354338E-01       4    7    1         0.3533913189E+01      0.7677495758E+01
          0                 2           2             4    7     1      -0.6534217002E-02       4    7    1        -0.3533956200E+00      0.7677288387E+00
          0                 3           2             4    7     1       0.4449553384E-03       4    7    1         0.2473766339E-01      0.5373909011E-01
          0                 4           1             4    7     1      -0.1770519183E-04       4    7    1        -0.1011772032E-02      0.2197830849E-02

    ------------------------------------------------
       NWT REQUIRED            4 OUTER ITERATIONS 
       AND A TOTAL OF          7 INNER ITERATIONS.
    ------------------------------------------------

 NO OUTPUT CONTROL FOR STRESS PERIOD   11   TIME STEP    7
 
 SOLVING FOR HEAD 
                                                   Max.-Head-Change                         Max.-Flux-Residual
  Residual-Control   Outer-Iter.   Inner-Iter.     Column Row Layer    Maximum-Head-Change  Column Row Layer    Maximum-Flux-Residual          L2-NORM 
          0                 1           2             4    7     1       0.6632961801E-01       4    7    1         0.3490204475E+01      0.7534629797E+01
          0                 2           2             4    7     1      -0.6452125874E-02       4    7    1        -0.3490247795E+00      0.7534319080E+00
          0                 3           2             4    7     1       0.4393652321E-03       4    7    1         0.2443170412E-01      0.5273848882E-01
          0                 4           1             4    7     1      -0.1748275644E-04       4    7    1        -0.9992582875E-03      0.2156910999E-02

    ------------------------------------------------
       NWT REQUIRED            4 OUTER ITERATIONS 
       AND A TOTAL OF          7 INNER ITERATIONS.
    ------------------------------------------------

 NO OUTPUT CONTROL FOR STRESS PERIOD   11   TIME STEP    8
 
 SOLVING FOR HEAD 
                                                   Max.-Head-Change                         Max.-Flux-Residual
  Residual-Control   Outer-Iter.   Inner-Iter.     Column Row Layer    Maximum-Head-Change  Column Row Layer    Maximum-Flux-Residual          L2-NORM 
          0                 1           2             4    7     1       0.6548422841E-01       4    7    1         0.3446353693E+01      0.7396532511E+01
          0                 2           2             4    7     1      -0.6369893479E-02       4    7    1        -0.3446397187E+00      0.7396372532E+00
          0                 3           2             4    7     1       0.4337655083E-03       4    7    1         0.2412474958E-01      0.5177298975E-01
          0                 4           1             4    7     1      -0.1725993825E-04       4    7    1        -0.9867038273E-03      0.2117376985E-02

    ------------------------------------------------
       NWT REQUIRED            4 OUTER ITERATIONS 
       AND A TOTAL OF          7 INNER ITERATIONS.
    ------------------------------------------------

 NO OUTPUT CONTROL FOR STRESS PERIOD   11   TIME STEP    9
 
 SOLVING FOR HEAD 
                                                   Max.-Head-Change                         Max.-Flux-Residual
  Residual-Control   Outer-Iter.   Inner-Iter.     Column Row Layer    Maximum-Head-Change  Column Row Layer    Maximum-Flux-Residual          L2-NORM 
          0                 1           2             4    7     1       0.6463854667E-01       4    7    1         0.3402426890E+01      0.7262943672E+01
          0                 2           2             4    7     1      -0.6287631802E-02       4    7    1        -0.3402470435E+00      0.7262802688E+00
          0                 3           2             4    7     1       0.4281637918E-03       4    7    1         0.2381726212E-01      0.5083822252E-01
          0                 4           1             4    7     1      -0.1703704074E-04       4    7    1        -0.9741275671E-03      0.2079220371E-02

    ------------------------------------------------
       NWT REQUIRED            4 OUTER ITERATIONS 
       AND A TOTAL OF          7 INNER ITERATIONS.
    ------------------------------------------------

 NO OUTPUT CONTROL FOR STRESS PERIOD   11   TIME STEP   10
 
 SOLVING FOR HEAD 
                                                   Max.-Head-Change                         Max.-Flux-Residual
  Residual-Control   Outer-Iter.   Inner-Iter.     Column Row Layer    Maximum-Head-Change  Column Row Layer    Maximum-Flux-Residual          L2-NORM 
          0                 1           2             4    7     1       0.6379378909E-01       4    7    1         0.3358492248E+01      0.7133626052E+01
          0                 2           2             4    7     1      -0.6205459859E-02       4    7    1        -0.3358535735E+00      0.7133502265E+00
          0                 3           2             4    7     1       0.4225681878E-03       4    7    1         0.2350971915E-01      0.4993330098E-01
          0                 4           1             4    7     1      -0.1681438615E-04       4    7    1        -0.9615490351E-03      0.2042239454E-02

    ------------------------------------------------
       NWT REQUIRED            4 OUTER ITERATIONS 
       AND A TOTAL OF          7 INNER ITERATIONS.
    ------------------------------------------------

 NO OUTPUT CONTROL FOR STRESS PERIOD   11   TIME STEP   11
 
 SOLVING FOR HEAD 
                                                   Max.-Head-Change                         Max.-Flux-Residual
  Residual-Control   Outer-Iter.   Inner-Iter.     Column Row Layer    Maximum-Head-Change  Column Row Layer    Maximum-Flux-Residual          L2-NORM 
          0                 1           2             4    7     1       0.6295081371E-01       4    7    1         0.3314598191E+01      0.7008361389E+01
          0                 2           2             4    7     1      -0.6123461116E-02       4    7    1        -0.3314641523E+00      0.7008182929E+00
          0                 3           2             4    7     1       0.4169843798E-03       4    7    1         0.2320245969E-01      0.4905617537E-01
          0                 4           1             4    7     1      -0.1659220162E-04       4    7    1        -0.9489821218E-03      0.2006327669E-02

    ------------------------------------------------
       NWT REQUIRED            4 OUTER ITERATIONS 
       AND A TOTAL OF          7 INNER ITERATIONS.
    ------------------------------------------------

 NO OUTPUT CONTROL FOR STRESS PERIOD   11   TIME STEP   12
 
 SOLVING FOR HEAD 
                                                   Max.-Head-Change                         Max.-Flux-Residual
  Residual-Control   Outer-Iter.   Inner-Iter.     Column Row Layer    Maximum-Head-Change  Column Row Layer    Maximum-Flux-Residual          L2-NORM 
          0                 1           2             4    7     1       0.6211053111E-01       4    7    1         0.3270796510E+01      0.6886946210E+01
          0                 2           2             4    7     1      -0.6041724205E-02       4    7    1        -0.3270839600E+00      0.6886850736E+00
          0                 3           2             4    7     1       0.4114184024E-03       4    7    1         0.2289584631E-01      0.4820695319E-01
          0                 4           1             4    7     1      -0.1637072617E-04       4    7    1        -0.9364416217E-03      0.1971608284E-02

    ------------------------------------------------
       NWT REQUIRED            4 OUTER ITERATIONS 
       AND A TOTAL OF          7 INNER ITERATIONS.
    ------------------------------------------------

 NO OUTPUT CONTROL FOR STRESS PERIOD   11   TIME STEP   13
 
 SOLVING FOR HEAD 
                                                   Max.-Head-Change                         Max.-Flux-Residual
  Residual-Control   Outer-Iter.   Inner-Iter.     Column Row Layer    Maximum-Head-Change  Column Row Layer    Maximum-Flux-Residual          L2-NORM 
          0                 1           2             4    7     1       0.6127404719E-01       4    7    1         0.3227149025E+01      0.6769206057E+01
          0                 2           2             4    7     1      -0.5960356675E-02       4    7    1        -0.3227191796E+00      0.6769122011E+00
          0                 3           2             4    7     1       0.4058775797E-03       4    7    1         0.2259031186E-01      0.4738294387E-01
          0                 4           1             4    7     1      -0.1615025129E-04       4    7    1        -0.9239452356E-03      0.1937895320E-02

    ------------------------------------------------
       NWT REQUIRED            4 OUTER ITERATIONS 
       AND A TOTAL OF          7 INNER ITERATIONS.
    ------------------------------------------------

 NO OUTPUT CONTROL FOR STRESS PERIOD   11   TIME STEP   14
 
 SOLVING FOR HEAD 
                                                   Max.-Head-Change                         Max.-Flux-Residual
  Residual-Control   Outer-Iter.   Inner-Iter.     Column Row Layer    Maximum-Head-Change  Column Row Layer    Maximum-Flux-Residual          L2-NORM 
          0                 1           2             4    7     1       0.6044170763E-01       4    7    1         0.3183676553E+01      0.6654939478E+01
          0                 2           2             4    7     1      -0.5879392176E-02       4    7    1        -0.3183718937E+00      0.6654865586E+00
          0                 3           2             4    7     1       0.4003642028E-03       4    7    1         0.2228600208E-01      0.4658324674E-01
          0                 4           1             4    7     1      -0.1593086908E-04       4    7    1        -0.9114989480E-03      0.1905197018E-02

    ------------------------------------------------
       NWT REQUIRED            4 OUTER ITERATIONS 
       AND A TOTAL OF          7 INNER ITERATIONS.
    ------------------------------------------------

 NO OUTPUT CONTROL FOR STRESS PERIOD   11   TIME STEP   15
 
 SOLVING FOR HEAD 
                                                   Max.-Head-Change                         Max.-Flux-Residual
  Residual-Control   Outer-Iter.   Inner-Iter.     Column Row Layer    Maximum-Head-Change  Column Row Layer    Maximum-Flux-Residual          L2-NORM 
          0                 1           2             4    7     1       0.5961448127E-01       4    7    1         0.3140433544E+01      0.6543993161E+01
          0                 2           2             4    7     1      -0.5798924963E-02       4    7    1        -0.3140475482E+00      0.6543929803E+00
          0                 3           2             4    7     1       0.3948846901E-03       4    7    1         0.2198329818E-01      0.4580675872E-01
          0                 4           1             4    7     1      -0.1571283387E-04       4    7    1        -0.8991183306E-03      0.1873442346E-02

    ------------------------------------------------
       NWT REQUIRED            4 OUTER ITERATIONS 
       AND A TOTAL OF          7 INNER ITERATIONS.
    ------------------------------------------------

 NO OUTPUT CONTROL FOR STRESS PERIOD   11   TIME STEP   16
 
 SOLVING FOR HEAD 
                                                   Max.-Head-Change                         Max.-Flux-Residual
  Residual-Control   Outer-Iter.   Inner-Iter.     Column Row Layer    Maximum-Head-Change  Column Row Layer    Maximum-Flux-Residual          L2-NORM 
          0                 1           2             4    7     1       0.5879299528E-01       4    7    1         0.3097455621E+01      0.6436211716E+01
          0                 2           2             4    7     1      -0.5719016054E-02       4    7    1        -0.3097497060E+00      0.6436154564E+00
          0                 3           2             4    7     1       0.3894431969E-03       4    7    1         0.2168244956E-01      0.4505241603E-01
          0                 4           1             4    7     1      -0.1549631201E-04       4    7    1        -0.8868136138E-03      0.1842611757E-02

    ------------------------------------------------
       NWT REQUIRED            4 OUTER ITERATIONS 
       AND A TOTAL OF          7 INNER ITERATIONS.
    ------------------------------------------------

 NO OUTPUT CONTROL FOR STRESS PERIOD   11   TIME STEP   17
 
 SOLVING FOR HEAD 
                                                   Max.-Head-Change                         Max.-Flux-Residual
  Residual-Control   Outer-Iter.   Inner-Iter.     Column Row Layer    Maximum-Head-Change  Column Row Layer    Maximum-Flux-Residual          L2-NORM 
          0                 1           2             4    7     1       0.5797781569E-01       4    7    1         0.3054775302E+01      0.6331454410E+01
          0                 2           2             4    7     1      -0.5639720520E-02       4    7    1        -0.3054816197E+00      0.6331404229E+00
          0                 3           2             4    7     1       0.3840434727E-03       4    7    1         0.2138368392E-01      0.4431922778E-01
          0                 4           1             4    7     1      -0.1528145167E-04       4    7    1        -0.8745940677E-03      0.1812621469E-02

    ------------------------------------------------
       NWT REQUIRED            4 OUTER ITERATIONS 
       AND A TOTAL OF          7 INNER ITERATIONS.
    ------------------------------------------------

 NO OUTPUT CONTROL FOR STRESS PERIOD   11   TIME STEP   18
 
 SOLVING FOR HEAD 
                                                   Max.-Head-Change                         Max.-Flux-Residual
  Residual-Control   Outer-Iter.   Inner-Iter.     Column Row Layer    Maximum-Head-Change  Column Row Layer    Maximum-Flux-Residual          L2-NORM 
          0                 1           2             4    7     1       0.5716944956E-01       4    7    1         0.3012421936E+01      0.6229580589E+01
          0                 2           2             4    7     1      -0.5561087691E-02       4    7    1        -0.3012462248E+00      0.6229536512E+00
          0                 3           2             4    7     1       0.3786888767E-03       4    7    1         0.2108720670E-01      0.4360619746E-01
          0                 4           1             4    7     1      -0.1506838721E-04       4    7    1        -0.8624681291E-03      0.1783466272E-02

    ------------------------------------------------
       NWT REQUIRED            4 OUTER ITERATIONS 
       AND A TOTAL OF          7 INNER ITERATIONS.
    ------------------------------------------------

 NO OUTPUT CONTROL FOR STRESS PERIOD   11   TIME STEP   19
 
 SOLVING FOR HEAD 
                                                   Max.-Head-Change                         Max.-Flux-Residual
  Residual-Control   Outer-Iter.   Inner-Iter.     Column Row Layer    Maximum-Head-Change  Column Row Layer    Maximum-Flux-Residual          L2-NORM 
          0                 1           2             4    7     1       0.5636822022E-01       4    7    1         0.2970414502E+01      0.6130467391E+01
          0                 2           2             4    7     1      -0.5483149015E-02       4    7    1        -0.2970454197E+00      0.6130364785E+00
          0                 3           2             4    7     1       0.3733815507E-03       4    7    1         0.2079315080E-01      0.4291204776E-01
          0                 4           1             4    7     1      -0.1485720382E-04       4    7    1        -0.8504412231E-03      0.1755091428E-02

    ------------------------------------------------
       NWT REQUIRED            4 OUTER ITERATIONS 
       AND A TOTAL OF          7 INNER ITERATIONS.
    ------------------------------------------------

 NO OUTPUT CONTROL FOR STRESS PERIOD   11   TIME STEP   20
 
 SOLVING FOR HEAD 
                                                   Max.-Head-Change                         Max.-Flux-Residual
  Residual-Control   Outer-Iter.   Inner-Iter.     Column Row Layer    Maximum-Head-Change  Column Row Layer    Maximum-Flux-Residual          L2-NORM 
          0                 1           2             4    7     1       0.5557480736E-01       4    7    1         0.2928791698E+01      0.6034004485E+01
          0                 2           2             4    7     1      -0.5405970650E-02       4    7    1        -0.2928830749E+00      0.6033970670E+00
          0                 3           2             4    7     1       0.3681259991E-03       4    7    1         0.2050178715E-01      0.4223733975E-01
          0                 4           1             4    7     1      -0.1464808017E-04       4    7    1        -0.8385244139E-03      0.1727471423E-02

    ------------------------------------------------
       NWT REQUIRED            4 OUTER ITERATIONS 
       AND A TOTAL OF          7 INNER ITERATIONS.
    ------------------------------------------------

 NO OUTPUT CONTROL FOR STRESS PERIOD   11   TIME STEP   21
 
 SOLVING FOR HEAD 
                                                   Max.-Head-Change                         Max.-Flux-Residual
  Residual-Control   Outer-Iter.   Inner-Iter.     Column Row Layer    Maximum-Head-Change  Column Row Layer    Maximum-Flux-Residual          L2-NORM 
          0                 1           2             4    7     1       0.5478930120E-01       4    7    1         0.2887559519E+01      0.5940079152E+01
          0                 2           2             4    7     1      -0.5329561345E-02       4    7    1        -0.2887597901E+00      0.5940049438E+00
          0                 3           2             4    7     1       0.3629228183E-03       4    7    1         0.2021315772E-01      0.4157991635E-01
          0                 4           1             4    7     1      -0.1444104091E-04       4    7    1        -0.8267194630E-03      0.1700606440E-02

    ------------------------------------------------
       NWT REQUIRED            4 OUTER ITERATIONS 
       AND A TOTAL OF          7 INNER ITERATIONS.
    ------------------------------------------------

 NO OUTPUT CONTROL FOR STRESS PERIOD   11   TIME STEP   22
 
 SOLVING FOR HEAD 
                                                   Max.-Head-Change                         Max.-Flux-Residual
  Residual-Control   Outer-Iter.   Inner-Iter.     Column Row Layer    Maximum-Head-Change  Column Row Layer    Maximum-Flux-Residual          L2-NORM 
          0                 1           2             4    7     1       0.5401243352E-01       4    7    1         0.2846759207E+01      0.5848594780E+01
          0                 2           2             4    7     1      -0.5253992301E-02       4    7    1        -0.2846796902E+00      0.5848568969E+00
          0                 3           2             4    7     1       0.3577768565E-03       4    7    1         0.1992755125E-01      0.4093959283E-01
          0                 4           1             4    7     1      -0.1423627842E-04       4    7    1        -0.8150381432E-03      0.1674396939E-02

    ------------------------------------------------
       NWT REQUIRED            4 OUTER ITERATIONS 
       AND A TOTAL OF          7 INNER ITERATIONS.
    ------------------------------------------------

 NO OUTPUT CONTROL FOR STRESS PERIOD   11   TIME STEP   23
 
 SOLVING FOR HEAD 
                                                   Max.-Head-Change                         Max.-Flux-Residual
  Residual-Control   Outer-Iter.   Inner-Iter.     Column Row Layer    Maximum-Head-Change  Column Row Layer    Maximum-Flux-Residual          L2-NORM 
          0                 1           2             4    7     1       0.5324406653E-01       4    7    1         0.2806384824E+01      0.5759434330E+01
          0                 2           2             4    7     1      -0.5179250119E-02       4    7    1        -0.2806421817E+00      0.5759411608E+00
          0                 3           2             4    7     1       0.3526872012E-03       4    7    1         0.1964492621E-01      0.4031548460E-01
          0                 4           1             4    7     1      -0.1403375596E-04       4    7    1        -0.8034787538E-03      0.1648861444E-02

    ------------------------------------------------
       NWT REQUIRED            4 OUTER ITERATIONS 
       AND A TOTAL OF          7 INNER ITERATIONS.
    ------------------------------------------------

 NO OUTPUT CONTROL FOR STRESS PERIOD   11   TIME STEP   24
 
 SOLVING FOR HEAD 
                                                   Max.-Head-Change                         Max.-Flux-Residual
  Residual-Control   Outer-Iter.   Inner-Iter.     Column Row Layer    Maximum-Head-Change  Column Row Layer    Maximum-Flux-Residual          L2-NORM 
          0                 1           2             4    7     1       0.5248472248E-01       4    7    1         0.2766465797E+01      0.5672518819E+01
          0                 2           2             4    7     1      -0.5105385605E-02       4    7    1        -0.2766502075E+00      0.5672500444E+00
          0                 3           2             4    7     1       0.3476573118E-03       4    7    1         0.1936548858E-01      0.3970729970E-01
          0                 4           1             4    7     1      -0.1383361215E-04       4    7    1        -0.7920497414E-03      0.1624004403E-02

    ------------------------------------------------
       NWT REQUIRED            4 OUTER ITERATIONS 
       AND A TOTAL OF          7 INNER ITERATIONS.
    ------------------------------------------------

 NO OUTPUT CONTROL FOR STRESS PERIOD   11   TIME STEP   25
 
 SOLVING FOR HEAD 
                                                   Max.-Head-Change                         Max.-Flux-Residual
  Residual-Control   Outer-Iter.   Inner-Iter.     Column Row Layer    Maximum-Head-Change  Column Row Layer    Maximum-Flux-Residual          L2-NORM 
          0                 1           2             4    7     1       0.5173460553E-01       4    7    1         0.2727014576E+01      0.5587759841E+01
          0                 2           2             4    7     1      -0.5032418624E-02       4    7    1        -0.2727050131E+00      0.5587742706E+00
          0                 3           2             4    7     1       0.3426885412E-03       4    7    1         0.1908932552E-01      0.3911389641E-01
          0                 4           1             4    7     1      -0.1363590007E-04       4    7    1        -0.7807546529E-03      0.1599741804E-02

    ------------------------------------------------
       NWT REQUIRED            4 OUTER ITERATIONS 
       AND A TOTAL OF          7 INNER ITERATIONS.
    ------------------------------------------------

 NO OUTPUT CONTROL FOR STRESS PERIOD   11   TIME STEP   26
 
 SOLVING FOR HEAD 
                                                   Max.-Head-Change                         Max.-Flux-Residual
  Residual-Control   Outer-Iter.   Inner-Iter.     Column Row Layer    Maximum-Head-Change  Column Row Layer    Maximum-Flux-Residual          L2-NORM 
          0                 1           2             4    7     1       0.5099375520E-01       4    7    1         0.2688034430E+01      0.5505071422E+01
          0                 2           2             4    7     1      -0.4960353022E-02       4    7    1        -0.2688069255E+00      0.5505056376E+00
          0                 3           2             4    7     1       0.3377811516E-03       4    7    1         0.1881645997E-01      0.3853510065E-01
          0                 4           1             4    7     1      -0.1344063054E-04       4    7    1        -0.7695944446E-03      0.1576075908E-02

    ------------------------------------------------
       NWT REQUIRED            4 OUTER ITERATIONS 
       AND A TOTAL OF          7 INNER ITERATIONS.
    ------------------------------------------------

 NO OUTPUT CONTROL FOR STRESS PERIOD   11   TIME STEP   27
 
 SOLVING FOR HEAD 
                                                   Max.-Head-Change                         Max.-Flux-Residual
  Residual-Control   Outer-Iter.   Inner-Iter.     Column Row Layer    Maximum-Head-Change  Column Row Layer    Maximum-Flux-Residual          L2-NORM 
          0                 1           2             4    7     1       0.5026258871E-01       4    7    1         0.2649549359E+01      0.5424378113E+01
          0                 2           2             4    7     1      -0.4889229388E-02       4    7    1        -0.2649583452E+00      0.5424364703E+00
          0                 3           2             4    7     1       0.3329379061E-03       4    7    1         0.1854705992E-01      0.3797026959E-01
          0                 4           1             4    7     1      -0.1324791315E-04       4    7    1        -0.7585759563E-03      0.1552975264E-02

    ------------------------------------------------
       NWT REQUIRED            4 OUTER ITERATIONS 
       AND A TOTAL OF          7 INNER ITERATIONS.
    ------------------------------------------------

 NO OUTPUT CONTROL FOR STRESS PERIOD   11   TIME STEP   28
 
 SOLVING FOR HEAD 
                                                   Max.-Head-Change                         Max.-Flux-Residual
  Residual-Control   Outer-Iter.   Inner-Iter.     Column Row Layer    Maximum-Head-Change  Column Row Layer    Maximum-Flux-Residual          L2-NORM 
          0                 1           2             4    7     1       0.4954108318E-01       4    7    1         0.2611559044E+01      0.5345605605E+01
          0                 2           2             4    7     1      -0.4819045502E-02       4    7    1        -0.2611592404E+00      0.5345594169E+00
          0                 3           2             4    7     1       0.3281586544E-03       4    7    1         0.1828112318E-01      0.3741889685E-01
          0                 4           1             4    7     1      -0.1305774239E-04       4    7    1        -0.7476991361E-03      0.1530407115E-02

    ------------------------------------------------
       NWT REQUIRED            4 OUTER ITERATIONS 
       AND A TOTAL OF          7 INNER ITERATIONS.
    ------------------------------------------------

 NO OUTPUT CONTROL FOR STRESS PERIOD   11   TIME STEP   29
 
 SOLVING FOR HEAD 
                                                   Max.-Head-Change                         Max.-Flux-Residual
  Residual-Control   Outer-Iter.   Inner-Iter.     Column Row Layer    Maximum-Head-Change  Column Row Layer    Maximum-Flux-Residual          L2-NORM 
          0                 1           2             4    7     1       0.4882920180E-01       4    7    1         0.2574062299E+01      0.5268688513E+01
          0                 2           2             4    7     1      -0.4749797781E-02       4    7    1        -0.2574094926E+00      0.5268678738E+00
          0                 3           2             4    7     1       0.3234431514E-03       4    7    1         0.1801864139E-01      0.3688051080E-01
          0                 4           1             4    7     1      -0.1287010800E-04       4    7    1        -0.7369636023E-03      0.1508403223E-02

    ------------------------------------------------
       NWT REQUIRED            4 OUTER ITERATIONS 
       AND A TOTAL OF          7 INNER ITERATIONS.
    ------------------------------------------------

 NO OUTPUT CONTROL FOR STRESS PERIOD   11   TIME STEP   30



 STREAM LISTING     PERIOD     11   STEP       30

 LAYER ROW COL. STREAM  RCH.  FLOW INTO     FLOW TO   FLOW OUT OF   OVRLND.     DIRECT     STREAM       STREAM     STREAM     STREAM   STREAMBED  STREAMBED
                SEG.NO.  NO.  STRM. RCH.    AQUIFER    STRM. RCH.    RUNOFF     PRECIP       ET          HEAD       DEPTH      WIDTH   CONDCTNC.   GRADIENT

   1    1    1     1     1    3.5000E+01  2.8629E-01   3.4713E+01  0.000E+00  0.000E+00  0.000E+00  1.09434E+03  1.292E+00  1.482E+01  6.670E-02  1.431E+00
   1    2    2     1     2    3.4713E+01  4.4324E-01   3.4270E+01  0.000E+00  0.000E+00  0.000E+00  1.08935E+03  1.289E+00  1.476E+01  1.033E-01  1.430E+00
   1    3    3     1     3    3.4270E+01  3.7790E-01   3.3892E+01  0.000E+00  0.000E+00  0.000E+00  1.08370E+03  1.286E+00  1.470E+01  8.817E-02  1.429E+00
   1    3    4     1     4    3.3892E+01  3.4789E-01   3.3544E+01  0.000E+00  0.000E+00  0.000E+00  1.07869E+03  1.283E+00  1.464E+01  8.123E-02  1.428E+00
   1    4    5     2     1    3.1544E+01  3.4194E-01   3.1202E+01  0.000E+00  0.000E+00  0.000E+00  1.07332E+03  1.384E+00  1.200E+01  7.800E-02  1.461E+00
   1    5    6     2     2    3.1202E+01  2.6255E-01   3.0940E+01  0.000E+00  0.000E+00  0.000E+00  1.06789E+03  1.376E+00  1.200E+01  6.000E-02  1.459E+00
   1    6    6     2     3    3.0940E+01  2.6213E-01   3.0678E+01  0.000E+00  0.000E+00  0.000E+00  1.06316E+03  1.369E+00  1.200E+01  6.000E-02  1.456E+00
   1    7    6     2     4    3.0678E+01  2.6171E-01   3.0416E+01  0.000E+00  0.000E+00  0.000E+00  1.05844E+03  1.362E+00  1.200E+01  6.000E-02  1.454E+00
   1    8    6     2     5    3.0416E+01  2.6129E-01   3.0155E+01  0.000E+00  0.000E+00  0.000E+00  1.05371E+03  1.355E+00  1.200E+01  6.000E-02  1.452E+00
   1    3    5     3     1    2.0000E+00  2.8252E-01   1.7175E+00  0.000E+00  0.000E+00  0.000E+00  1.07555E+03  1.909E+00  9.636E+00  7.227E-02  1.955E+00
   1    3    6     3     2    1.7175E+00  2.4905E-01   1.4684E+00  0.000E+00  0.000E+00  0.000E+00  1.07264E+03  1.727E+00  8.909E+00  6.682E-02  1.864E+00
   1    3    7     3     3    1.4684E+00  1.9718E-01   1.2712E+00  0.000E+00  0.000E+00  0.000E+00  1.06987E+03  1.555E+00  8.218E+00  5.547E-02  1.777E+00
   1    4    8     3     4    1.2712E+00  2.2567E-01   1.0456E+00  0.000E+00  0.000E+00  0.000E+00  1.06682E+03  1.364E+00  7.455E+00  6.709E-02  1.682E+00
   1    5    8     3     5    1.0456E+00  1.5790E-01   8.8768E-01  0.000E+00  0.000E+00  0.000E+00  1.06362E+03  1.164E+00  6.655E+00  4.991E-02  1.582E+00
   1    6    8     3     6    8.8768E-01  5.5980E-02   8.3170E-01  0.000E+00  0.000E+00  0.000E+00  1.06158E+03  1.036E+00  6.145E+00  1.844E-02  1.518E+00
   1    5   10     4     1    1.0000E+01  9.0919E-02   9.9091E+00  0.000E+00  0.000E+00  0.000E+00  1.07836E+03  6.368E-01  1.000E+01  2.500E-02  1.212E+00
   1    5    9     4     2    9.9091E+00  1.8158E-01   9.7275E+00  0.000E+00  0.000E+00  0.000E+00  1.07154E+03  6.315E-01  1.000E+01  5.000E-02  1.211E+00
   1    6    8     4     3    9.7275E+00  1.2689E-01   9.6006E+00  0.000E+00  0.000E+00  0.000E+00  1.06381E+03  6.256E-01  1.000E+01  3.500E-02  1.209E+00
   1    6    8     5     1    1.0432E+01  2.2686E-01   1.0205E+01  0.000E+00  0.000E+00  0.000E+00  1.05868E+03  6.790E-01  1.542E+01  6.166E-02  1.226E+00
   1    7    7     5     2    1.0205E+01  2.7894E-01   9.9265E+00  0.000E+00  0.000E+00  0.000E+00  1.05417E+03  6.732E-01  1.519E+01  7.594E-02  1.224E+00
   1    8    7     5     3    9.9265E+00  1.9221E-01   9.7343E+00  0.000E+00  0.000E+00  0.000E+00  1.04992E+03  6.676E-01  1.497E+01  5.241E-02  1.223E+00
   1    8    6     5     4    9.7343E+00  1.3577E-01   9.5985E+00  0.000E+00  0.000E+00  0.000E+00  1.04691E+03  6.637E-01  1.482E+01  3.706E-02  1.221E+00
   1    9    6     6     1    3.9753E+01  2.7657E-01   3.9477E+01  0.000E+00  0.000E+00  0.000E+00  1.04434E+03  1.609E+00  1.200E+01  6.000E-02  1.536E+00
   1   10    7     6     2    3.9477E+01  2.7616E-01   3.9201E+01  0.000E+00  0.000E+00  0.000E+00  1.03978E+03  1.603E+00  1.200E+01  6.000E-02  1.534E+00
   1   11    7     6     3    3.9201E+01  2.7576E-01   3.8925E+01  0.000E+00  0.000E+00  0.000E+00  1.03523E+03  1.596E+00  1.200E+01  6.000E-02  1.532E+00
   1   12    7     6     4    3.8925E+01  2.7535E-01   3.8649E+01  0.000E+00  0.000E+00  0.000E+00  1.03068E+03  1.589E+00  1.200E+01  6.000E-02  1.530E+00
   1   13    7     6     5    3.8649E+01  6.4615E-03   3.8643E+01  0.000E+00  0.000E+00  0.000E+00  1.02749E+03  1.586E+00  1.200E+01  2.400E-02  8.974E-02
   1   14    9     7     1    1.5000E+02  1.3303E+00   1.4867E+02  0.000E+00  0.000E+00  0.000E+00  1.03987E+03  2.288E+00  5.529E+01  5.593E-01  7.928E-01
   1   13    8     7     2    1.4867E+02  1.7942E+00   1.4688E+02  0.000E+00  0.000E+00  0.000E+00  1.03478E+03  2.279E+00  5.526E+01  6.148E-01  9.728E-01
   1   13    7     7     3    1.4688E+02  1.3765E+00   1.4550E+02  0.000E+00  0.000E+00  0.000E+00  1.02969E+03  2.271E+00  5.522E+01  5.585E-01  8.216E-01
   1   13    6     8     1    1.8414E+02  8.8387E-01   1.8326E+02  0.000E+00  0.000E+00  0.000E+00  1.02491E+03  3.039E+00  4.407E+01  4.491E-01  6.561E-01
   1   13    5     8     2    1.8326E+02  1.2555E-01   1.8313E+02  0.000E+00  0.000E+00  0.000E+00  1.01866E+03  3.036E+00  4.402E+01  4.486E-01  9.329E-02
   1   13    4     8     3    1.8313E+02 -2.6187E+00   1.8575E+02  0.000E+00  0.000E+00  0.000E+00  1.01242E+03  3.044E+00  4.414E+01  4.498E+00 -1.941E-01
   1   13    3     8     4    1.8575E+02 -3.7511E+00   1.8950E+02  0.000E+00  0.000E+00  0.000E+00  1.00619E+03  3.063E+00  4.442E+01  4.527E+00 -2.762E-01
   1   13    2     8     5    1.8950E+02 -2.6148E+00   1.9212E+02  0.000E+00  0.000E+00  0.000E+00  9.99958E+02  3.083E+00  4.470E+01  4.555E+00 -1.913E-01
   1   13    1     8     6    1.9212E+02 -2.0205E+00   1.9414E+02  0.000E+00  0.000E+00  0.000E+00  9.94972E+02  3.097E+00  4.490E+01  2.746E+00 -2.453E-01





UNSATURATED ZONE PACKAGE VOLUMETRIC BUDGET FOR  TIME STEP    30 STRESS PERIOD   11
  ------------------------------------------------------------------------------



     CUMULATIVE VOLUMES      L**3       RATES FOR THIS TIME STEP      L**3/T
     ------------------                 ------------------------

           IN:                                      IN:
           ---                                      ---
        INFILTRATION =   515819682.7551          INFILTRATION =           4.4075

          OUT:                                     OUT:
          ----                                     ----
              UZF ET =   494278514.6472                UZF ET =           3.7800
        UZF RECHARGE =       73224.0000          UZF RECHARGE =       0.0000E+00

            IN - OUT =    21467944.1079              IN - OUT =           0.6275

          STORAGE:                                 STORAGE:
          --------                                 --------
      STORAGE CHANGE =    21468639.3186        STORAGE CHANGE =           0.6275

 PERCENT DISCREPANCY IS DIFFERENCE BETWEEN IN-OUT MINUS CHANGE IN STORAGE
 DIVIDED BY THE AVERAGE OF IN AND OUT TIMES 100

 PERCENT DISCREPANCY =          -0.00     PERCENT DISCREPANCY =           0.00






1
  VOLUMETRIC BUDGET FOR ENTIRE MODEL AT END OF TIME STEP   30, STRESS PERIOD  11
  ------------------------------------------------------------------------------

     CUMULATIVE VOLUMES      L**3       RATES FOR THIS TIME STEP      L**3/T
     ------------------                 ------------------------

           IN:                                      IN:
           ---                                      ---
               AG WELLS  =   399829152.0000                 AG WELLS  =           0.0000
      DIVERSION SEGMENTS =           0.0000        DIVERSION SEGMENTS =           0.0000
           GW IRRIGATION =           0.0000             GW IRRIGATION =           0.0000
           SW IRRIGATION =           0.0000             SW IRRIGATION =           0.0000
        SYSTEM LOSSES GW =           0.0000          SYSTEM LOSSES GW =           0.0000
        SYSTEM LOSSES SW =           0.0000          SYSTEM LOSSES SW =           0.0000

                TOTAL IN =   399829152.0000                  TOTAL IN =           0.0000

          OUT:                                     OUT:
          ----                                     ----
               AG WELLS  =           0.0000                 AG WELLS  =           0.0000
      DIVERSION SEGMENTS =           0.0000        DIVERSION SEGMENTS =           0.0000
           GW IRRIGATION =   399829152.0000             GW IRRIGATION =           0.0000
           SW IRRIGATION =           0.0000             SW IRRIGATION =           0.0000
        SYSTEM LOSSES GW =           0.0000          SYSTEM LOSSES GW =           0.0000
        SYSTEM LOSSES SW =           0.0000          SYSTEM LOSSES SW =           0.0000

               TOTAL OUT =   399829152.0000                 TOTAL OUT =           0.0000

                IN - OUT =           0.0000                  IN - OUT =           0.0000

     PERCENT DISCREPANCY =           0.00         PERCENT DISCREPANCY =           0.00



1
  VOLUMETRIC BUDGET FOR ENTIRE MODEL AT END OF TIME STEP   30, STRESS PERIOD  11
  ------------------------------------------------------------------------------

     CUMULATIVE VOLUMES      L**3       RATES FOR THIS TIME STEP      L**3/T
     ------------------                 ------------------------

           IN:                                      IN:
           ---                                      ---
             STORAGE     =   476288128.0000               STORAGE     =          12.6729
       CONSTANT HEAD     =           0.0000         CONSTANT HEAD     =           0.0000
     HEAD DEP BOUNDS     =     7531935.0000       HEAD DEP BOUNDS     =           0.2854
      STREAM LEAKAGE     =   334131200.0000        STREAM LEAKAGE     =          11.8671
        UZF RECHARGE     =       73223.9531          UZF RECHARGE     =           0.0000
               GW ET     =           0.0000                 GW ET     =           0.0000
     SURFACE LEAKAGE     =           0.0000       SURFACE LEAKAGE     =           0.0000
           AG WELLS      =           0.0000             AG WELLS      =           0.0000

                TOTAL IN =   818024448.0000                  TOTAL IN =          24.8254

          OUT:                                     OUT:
          ----                                     ----
             STORAGE     =   126415968.0000               STORAGE     =          13.5248
       CONSTANT HEAD     =           0.0000         CONSTANT HEAD     =           0.0000
     HEAD DEP BOUNDS     =     7792491.5000       HEAD DEP BOUNDS     =           0.2929
      STREAM LEAKAGE     =   270404992.0000        STREAM LEAKAGE     =          11.0052
        UZF RECHARGE     =           0.0000          UZF RECHARGE     =           0.0000
               GW ET     =    13586479.0000                 GW ET     =       2.5611E-03
     SURFACE LEAKAGE     =           0.0000       SURFACE LEAKAGE     =           0.0000
           AG WELLS      =   399829152.0000             AG WELLS      =           0.0000

               TOTAL OUT =   818029056.0000                 TOTAL OUT =          24.8254

                IN - OUT =       -4608.0000                  IN - OUT =       9.5367E-06

     PERCENT DISCREPANCY =          -0.00         PERCENT DISCREPANCY =           0.00






         TIME SUMMARY AT END OF TIME STEP   30 IN STRESS PERIOD   11
                    SECONDS     MINUTES      HOURS       DAYS        YEARS
                    -----------------------------------------------------------
   TIME STEP LENGTH  87667.      1461.1      24.352      1.0147     2.77799E-03
 STRESS PERIOD TIME 2.63000E+06  43833.      730.56      30.440     8.33397E-02
         TOTAL TIME 2.63864E+07 4.39773E+05  7329.5      305.40     0.83613    
1
1
                            STRESS PERIOD NO.   12, LENGTH =   2630000.    
                            -----------------------------------------------

                              NUMBER OF TIME STEPS =    30

                               MULTIPLIER FOR DELT =     1.000

                            INITIAL TIME STEP SIZE =   87666.66    

 REUSING NON-PARAMETER GHB CELLS FROM LAST STRESS PERIOD

      2 GHB CELLS

 REUSING STREAM SEGMENT DATA FROM LAST STRESS PERIOD



            AREAL INFILTRATION RATE
 READING ON UNIT   19 WITH FORMAT: (10F4.0)            

            1           2           3           4           5           6           7           8           9          10
 ........................................................................................................................
   1   1.2000E-09   0.000       0.000       0.000       0.000       0.000       0.000       0.000       0.000       0.000    
   2   2.1000E-09  2.0000E-09  8.0000E-10  8.5000E-09   0.000       0.000       0.000       0.000       0.000       0.000    
   3   5.0000E-10  1.1000E-09  8.8000E-09  5.5000E-09   0.000       0.000       0.000       0.000       0.000       0.000    
   4   8.5000E-09  1.1000E-09  1.1000E-09  1.1000E-09  2.0000E-09   0.000       0.000       0.000       0.000       0.000    
   5   8.5000E-09  1.1000E-09  1.1000E-09  1.1000E-09  1.1000E-09   0.000       0.000       0.000       0.000       0.000    
   6   8.5000E-09  5.2000E-09  2.1000E-09  1.1000E-09  1.5000E-09   0.000       0.000       0.000       0.000       0.000    
   7   8.5000E-09  5.2000E-09  2.1000E-09  1.2000E-09  2.0000E-09   0.000       0.000       0.000       0.000       0.000    
   8   5.0000E-10  5.2000E-09  2.1000E-09  1.2000E-09  5.0000E-09   0.000       0.000       0.000       0.000       0.000    
   9   5.0000E-10  5.2000E-09  2.1000E-09  1.2000E-09  5.0000E-09   0.000       0.000       0.000       0.000       0.000    
  10   5.0000E-10  5.2000E-09  2.1000E-09  1.2000E-09  5.8000E-09   0.000       0.000       0.000       0.000       0.000    
  11   1.0000E-10  1.1000E-09  1.1000E-09  1.2000E-09  5.0000E-09   0.000       0.000       0.000       0.000       0.000    
  12   1.1000E-09  1.1000E-09  1.1000E-09  1.1000E-09  2.0000E-09   0.000       0.000       0.000       0.000       0.000    
  13   1.1000E-09  2.2000E-09  2.2000E-09  2.1000E-09  1.0000E-09   0.000       0.000       0.000       0.000       0.000    
  14   2.0000E-10  5.5000E-09  5.5000E-09  5.2000E-09  1.0000E-09   0.000       0.000       0.000       0.000       0.000    
  15    0.000      8.8000E-09  8.8000E-09   0.000       0.000       0.000       0.000       0.000       0.000       0.000    

                  ET RATE =  5.000000E-10

 USING ET EXTINCTION DEPTH FROM PREVIOUS STRESS PERIOD. CURRENT PERIOD IS:      12

 USING EXTINCTION WATER CONTENT FROM PREVIOUS STRESS PERIOD. CURRENT PERIOD IS:      12

 USING AIR ENTRY PRESSURE FROM PREVIOUS STRESS PERIOD. CURRENT PERIOD IS:      12

 USING ROOT PRESSURE HEAD FROM PREVIOUS STRESS PERIOD. CURRENT PERIOD IS:      12

 USING ROOT ACTIVITY FROM PREVIOUS STRESS PERIOD. CURRENT PERIOD IS:      12

 PROCESSING AG STRESS PERIOD DATA

 READING AG STRESS PERIOD DATA

 READING IRRIGATION WELL

 END PROCESSING AG STRESS PERIOD DATA OPTIONS
 
 SOLVING FOR HEAD 
                                                   Max.-Head-Change                         Max.-Flux-Residual
  Residual-Control   Outer-Iter.   Inner-Iter.     Column Row Layer    Maximum-Head-Change  Column Row Layer    Maximum-Flux-Residual          L2-NORM 
          0                 1           2             4    7     1       0.4812736379E-01       4    7    1         0.2537086493E+01      0.5211438995E+01
          0                 2           2             4    7     1      -0.4681527013E-02       4    7    1        -0.2537118391E+00      0.5210833155E+00
          0                 3           2             4    7     1       0.3187941759E-03       4    7    1         0.1775980623E-01      0.3647025318E-01
          0                 4           1             4    7     1      -0.1268512062E-04       4    7    1        -0.7263772384E-03      0.1491404299E-02

    ------------------------------------------------
       NWT REQUIRED            4 OUTER ITERATIONS 
       AND A TOTAL OF          7 INNER ITERATIONS.
    ------------------------------------------------

 NO OUTPUT CONTROL FOR STRESS PERIOD   12   TIME STEP    1
 
 SOLVING FOR HEAD 
                                                   Max.-Head-Change                         Max.-Flux-Residual
  Residual-Control   Outer-Iter.   Inner-Iter.     Column Row Layer    Maximum-Head-Change  Column Row Layer    Maximum-Flux-Residual          L2-NORM 
          0                 1           2             4    7     1       0.4743533619E-01       4    7    1         0.2500616765E+01      0.5141606838E+01
          0                 2           2             4    7     1      -0.4614210537E-02       4    7    1        -0.2500647939E+00      0.5140893529E+00
          0                 3           2             4    7     1       0.3142101834E-03       4    7    1         0.1750451364E-01      0.3597958342E-01
          0                 4           1             4    7     1      -0.1250271913E-04       4    7    1        -0.7159357353E-03      0.1471144981E-02

    ------------------------------------------------
       NWT REQUIRED            4 OUTER ITERATIONS 
       AND A TOTAL OF          7 INNER ITERATIONS.
    ------------------------------------------------

 NO OUTPUT CONTROL FOR STRESS PERIOD   12   TIME STEP    2
 
 SOLVING FOR HEAD 
                                                   Max.-Head-Change                         Max.-Flux-Residual
  Residual-Control   Outer-Iter.   Inner-Iter.     Column Row Layer    Maximum-Head-Change  Column Row Layer    Maximum-Flux-Residual          L2-NORM 
          0                 1           2             4    7     1       0.4675315153E-01       4    7    1         0.2464655674E+01      0.5068178782E+01
          0                 2           2             4    7     1      -0.4547851519E-02       4    7    1        -0.2464686129E+00      0.5067550102E+00
          0                 3           2             4    7     1       0.3096913905E-03       4    7    1         0.1725278153E-01      0.3546697510E-01
          0                 4           1             4    7     1      -0.1232291215E-04       4    7    1        -0.7056398740E-03      0.1450397751E-02

    ------------------------------------------------
       NWT REQUIRED            4 OUTER ITERATIONS 
       AND A TOTAL OF          7 INNER ITERATIONS.
    ------------------------------------------------

 NO OUTPUT CONTROL FOR STRESS PERIOD   12   TIME STEP    3
 
 SOLVING FOR HEAD 
                                                   Max.-Head-Change                         Max.-Flux-Residual
  Residual-Control   Outer-Iter.   Inner-Iter.     Column Row Layer    Maximum-Head-Change  Column Row Layer    Maximum-Flux-Residual          L2-NORM 
          0                 1           2             4    7     1       0.4608096209E-01       4    7    1         0.2429212231E+01      0.4996579972E+01
          0                 2           2             4    7     1      -0.4482464773E-02       4    7    1        -0.2429241974E+00      0.4996019275E+00
          0                 3           2             4    7     1       0.3052388060E-03       4    7    1         0.1700467301E-01      0.3496689882E-01
          0                 4           1             4    7     1      -0.1214573976E-04       4    7    1        -0.6954922328E-03      0.1429850743E-02

    ------------------------------------------------
       NWT REQUIRED            4 OUTER ITERATIONS 
       AND A TOTAL OF          7 INNER ITERATIONS.
    ------------------------------------------------

 NO OUTPUT CONTROL FOR STRESS PERIOD   12   TIME STEP    4
 
 SOLVING FOR HEAD 
                                                   Max.-Head-Change                         Max.-Flux-Residual
  Residual-Control   Outer-Iter.   Inner-Iter.     Column Row Layer    Maximum-Head-Change  Column Row Layer    Maximum-Flux-Residual          L2-NORM 
          0                 1           2             4    7     1       0.4541889831E-01       4    7    1         0.2394294333E+01      0.4926731593E+01
          0                 2           2             4    7     1      -0.4418062989E-02       4    7    1        -0.2394323372E+00      0.4926244543E+00
          0                 3           2             4    7     1       0.3008532932E-03       4    7    1         0.1676024336E-01      0.3447913202E-01
          0                 4           1             4    7     1      -0.1197123590E-04       4    7    1        -0.6854950316E-03      0.1409959863E-02

    ------------------------------------------------
       NWT REQUIRED            4 OUTER ITERATIONS 
       AND A TOTAL OF          7 INNER ITERATIONS.
    ------------------------------------------------

 NO OUTPUT CONTROL FOR STRESS PERIOD   12   TIME STEP    5
 
 SOLVING FOR HEAD 
                                                   Max.-Head-Change                         Max.-Flux-Residual
  Residual-Control   Outer-Iter.   Inner-Iter.     Column Row Layer    Maximum-Head-Change  Column Row Layer    Maximum-Flux-Residual          L2-NORM 
          0                 1           2             4    7     1       0.4476666299E-01       4    7    1         0.2359886776E+01      0.4858542417E+01
          0                 2           2             4    7     1      -0.4354617258E-02       4    7    1        -0.2359915119E+00      0.4858112434E+00
          0                 3           2             4    7     1       0.2965328842E-03       4    7    1         0.1651938615E-01      0.3400275338E-01
          0                 4           1             4    7     1      -0.1179932288E-04       4    7    1        -0.6756439591E-03      0.1390561450E-02

    ------------------------------------------------
       NWT REQUIRED            4 OUTER ITERATIONS 
       AND A TOTAL OF          7 INNER ITERATIONS.
    ------------------------------------------------

 NO OUTPUT CONTROL FOR STRESS PERIOD   12   TIME STEP    6
 
 SOLVING FOR HEAD 
                                                   Max.-Head-Change                         Max.-Flux-Residual
  Residual-Control   Outer-Iter.   Inner-Iter.     Column Row Layer    Maximum-Head-Change  Column Row Layer    Maximum-Flux-Residual          L2-NORM 
          0                 1           2             4    7     1       0.4412450262E-01       4    7    1         0.2326003442E+01      0.4791953858E+01
          0                 2           2             4    7     1      -0.4292151560E-02       4    7    1        -0.2326031099E+00      0.4791573545E+00
          0                 3           2             4    7     1       0.2922792116E-03       4    7    1         0.1628219856E-01      0.3353740254E-01
          0                 4           1             4    7     1      -0.1163006528E-04       4    7    1        -0.6659429753E-03      0.1371398935E-02

    ------------------------------------------------
       NWT REQUIRED            4 OUTER ITERATIONS 
       AND A TOTAL OF          7 INNER ITERATIONS.
    ------------------------------------------------

 NO OUTPUT CONTROL FOR STRESS PERIOD   12   TIME STEP    7
 
 SOLVING FOR HEAD 
                                                   Max.-Head-Change                         Max.-Flux-Residual
  Residual-Control   Outer-Iter.   Inner-Iter.     Column Row Layer    Maximum-Head-Change  Column Row Layer    Maximum-Flux-Residual          L2-NORM 
          0                 1           2             4    7     1       0.4349222549E-01       4    7    1         0.2292635143E+01      0.4726888533E+01
          0                 2           2             4    7     1      -0.4230647245E-02       4    7    1        -0.2292662124E+00      0.4726551752E+00
          0                 3           2             4    7     1       0.2880910054E-03       4    7    1         0.1604861627E-01      0.3308260563E-01
          0                 4           1             4    7     1      -0.1146341278E-04       4    7    1        -0.6563894422E-03      0.1352828854E-02

    ------------------------------------------------
       NWT REQUIRED            4 OUTER ITERATIONS 
       AND A TOTAL OF          7 INNER ITERATIONS.
    ------------------------------------------------

 NO OUTPUT CONTROL FOR STRESS PERIOD   12   TIME STEP    8
 
 SOLVING FOR HEAD 
                                                   Max.-Head-Change                         Max.-Flux-Residual
  Residual-Control   Outer-Iter.   Inner-Iter.     Column Row Layer    Maximum-Head-Change  Column Row Layer    Maximum-Flux-Residual          L2-NORM 
          0                 1           2             4    7     1       0.4286991228E-01       4    7    1         0.2259786587E+01      0.4663302411E+01
          0                 2           2             4    7     1      -0.4170112164E-02       4    7    1        -0.2259812902E+00      0.4663003755E+00
          0                 3           2             4    7     1       0.2839688004E-03       4    7    1         0.1581867225E-01      0.3263814126E-01
          0                 4           1             4    7     1      -0.1129938611E-04       4    7    1        -0.6469847156E-03      0.1334721767E-02

    ------------------------------------------------
       NWT REQUIRED            4 OUTER ITERATIONS 
       AND A TOTAL OF          7 INNER ITERATIONS.
    ------------------------------------------------

 NO OUTPUT CONTROL FOR STRESS PERIOD   12   TIME STEP    9
 
 SOLVING FOR HEAD 
                                                   Max.-Head-Change                         Max.-Flux-Residual
  Residual-Control   Outer-Iter.   Inner-Iter.     Column Row Layer    Maximum-Head-Change  Column Row Layer    Maximum-Flux-Residual          L2-NORM 
          0                 1           2             4    7     1       0.4225749160E-01       4    7    1         0.2227454634E+01      0.4601122057E+01
          0                 2           2             4    7     1      -0.4110539373E-02       4    7    1        -0.2227480296E+00      0.4600856449E+00
          0                 3           2             4    7     1       0.2799121234E-03       4    7    1         0.1559234453E-01      0.3220344003E-01
          0                 4           1             4    7     1      -0.1113796697E-04       4    7    1        -0.6377278808E-03      0.1317196259E-02

    ------------------------------------------------
       NWT REQUIRED            4 OUTER ITERATIONS 
       AND A TOTAL OF          7 INNER ITERATIONS.
    ------------------------------------------------

 NO OUTPUT CONTROL FOR STRESS PERIOD   12   TIME STEP   10
 
 SOLVING FOR HEAD 
                                                   Max.-Head-Change                         Max.-Flux-Residual
  Residual-Control   Outer-Iter.   Inner-Iter.     Column Row Layer    Maximum-Head-Change  Column Row Layer    Maximum-Flux-Residual          L2-NORM 
          0                 1           2             4    7     1       0.4165474386E-01       4    7    1         0.2195628255E+01      0.4540295979E+01
          0                 2           2             4    7     1      -0.4051907513E-02       4    7    1        -0.2195653275E+00      0.4540059005E+00
          0                 3           2             4    7     1       0.2759195204E-03       4    7    1         0.1536955589E-01      0.3177811321E-01
          0                 4           1             4    7     1      -0.1097909767E-04       4    7    1        -0.6286158216E-03      0.1299587221E-02

    ------------------------------------------------
       NWT REQUIRED            4 OUTER ITERATIONS 
       AND A TOTAL OF          7 INNER ITERATIONS.
    ------------------------------------------------

 NO OUTPUT CONTROL FOR STRESS PERIOD   12   TIME STEP   11
 
 SOLVING FOR HEAD 
                                                   Max.-Head-Change                         Max.-Flux-Residual
  Residual-Control   Outer-Iter.   Inner-Iter.     Column Row Layer    Maximum-Head-Change  Column Row Layer    Maximum-Flux-Residual          L2-NORM 
          0                 1           2             4    7     1       0.4106172503E-01       4    7    1         0.2164310720E+01      0.4480786238E+01
          0                 2           2             4    7     1      -0.3994222027E-02       4    7    1        -0.2164335109E+00      0.4480575878E+00
          0                 3           2             4    7     1       0.2719913617E-03       4    7    1         0.1515032923E-01      0.3136202329E-01
          0                 4           1             4    7     1      -0.1082279250E-04       4    7    1        -0.6196494355E-03      0.1282600225E-02

    ------------------------------------------------
       NWT REQUIRED            4 OUTER ITERATIONS 
       AND A TOTAL OF          7 INNER ITERATIONS.
    ------------------------------------------------

 NO OUTPUT CONTROL FOR STRESS PERIOD   12   TIME STEP   12
 
 SOLVING FOR HEAD 
                                                   Max.-Head-Change                         Max.-Flux-Residual
  Residual-Control   Outer-Iter.   Inner-Iter.     Column Row Layer    Maximum-Head-Change  Column Row Layer    Maximum-Flux-Residual          L2-NORM 
          0                 1           2             4    7     1       0.4047847102E-01       4    7    1         0.2133504931E+01      0.4422543500E+01
          0                 2           2             4    7     1      -0.3937486411E-02       4    7    1        -0.2133528702E+00      0.4422355138E+00
          0                 3           2             4    7     1       0.2681278856E-03       4    7    1         0.1493468488E-01      0.3095465034E-01
          0                 4           1             4    7     1      -0.1066906112E-04       4    7    1        -0.6108295743E-03      0.1265904041E-02

    ------------------------------------------------
       NWT REQUIRED            4 OUTER ITERATIONS 
       AND A TOTAL OF          7 INNER ITERATIONS.
    ------------------------------------------------

 NO OUTPUT CONTROL FOR STRESS PERIOD   12   TIME STEP   13
 
 SOLVING FOR HEAD 
                                                   Max.-Head-Change                         Max.-Flux-Residual
  Residual-Control   Outer-Iter.   Inner-Iter.     Column Row Layer    Maximum-Head-Change  Column Row Layer    Maximum-Flux-Residual          L2-NORM 
          0                 1           2             4    7     1       0.3990473579E-01       4    7    1         0.2103198096E+01      0.4365518634E+01
          0                 2           2             4    7     1      -0.3881676730E-02       4    7    1        -0.2103221261E+00      0.4365349800E+00
          0                 3           2             4    7     1       0.2643274618E-03       4    7    1         0.1472253327E-01      0.3055580065E-01
          0                 4           1             4    7     1      -0.1051783894E-04       4    7    1        -0.6021525523E-03      0.1249595817E-02

    ------------------------------------------------
       NWT REQUIRED            4 OUTER ITERATIONS 
       AND A TOTAL OF          7 INNER ITERATIONS.
    ------------------------------------------------

 NO OUTPUT CONTROL FOR STRESS PERIOD   12   TIME STEP   14
 
 SOLVING FOR HEAD 
                                                   Max.-Head-Change                         Max.-Flux-Residual
  Residual-Control   Outer-Iter.   Inner-Iter.     Column Row Layer    Maximum-Head-Change  Column Row Layer    Maximum-Flux-Residual          L2-NORM 
          0                 1           2             4    7     1       0.3934041170E-01       4    7    1         0.2073384784E+01      0.4309671365E+01
          0                 2           2             4    7     1      -0.3826782515E-02       4    7    1        -0.2073407357E+00      0.4309519590E+00
          0                 3           2             4    7     1       0.2605893777E-03       4    7    1         0.1451383640E-01      0.3016515128E-01
          0                 4           1             4    7     1      -0.1036909662E-04       4    7    1        -0.5936168352E-03      0.1233699366E-02

    ------------------------------------------------
       NWT REQUIRED            4 OUTER ITERATIONS 
       AND A TOTAL OF          7 INNER ITERATIONS.
    ------------------------------------------------

 NO OUTPUT CONTROL FOR STRESS PERIOD   12   TIME STEP   15
 
 SOLVING FOR HEAD 
                                                   Max.-Head-Change                         Max.-Flux-Residual
  Residual-Control   Outer-Iter.   Inner-Iter.     Column Row Layer    Maximum-Head-Change  Column Row Layer    Maximum-Flux-Residual          L2-NORM 
          0                 1           2             4    7     1       0.3878552337E-01       4    7    1         0.2044066747E+01      0.4254980020E+01
          0                 2           2             4    7     1      -0.3772806161E-02       4    7    1        -0.2044088740E+00      0.4254843074E+00
          0                 3           2             4    7     1       0.2569137964E-03       4    7    1         0.1430860655E-01      0.2978252807E-01
          0                 4           1             4    7     1      -0.1022284185E-04       4    7    1        -0.5852229215E-03      0.1218028324E-02

    ------------------------------------------------
       NWT REQUIRED            4 OUTER ITERATIONS 
       AND A TOTAL OF          7 INNER ITERATIONS.
    ------------------------------------------------

 NO OUTPUT CONTROL FOR STRESS PERIOD   12   TIME STEP   16
 
 SOLVING FOR HEAD 
                                                   Max.-Head-Change                         Max.-Flux-Residual
  Residual-Control   Outer-Iter.   Inner-Iter.     Column Row Layer    Maximum-Head-Change  Column Row Layer    Maximum-Flux-Residual          L2-NORM 
          0                 1           2             4    7     1       0.3823994510E-01       4    7    1         0.2015237931E+01      0.4201391359E+01
          0                 2           2             4    7     1      -0.3719735441E-02       4    7    1        -0.2015259357E+00      0.4201267989E+00
          0                 3           2             4    7     1       0.2532998854E-03       4    7    1         0.1410680133E-01      0.2940765316E-01
          0                 4           1             4    7     1      -0.1007904080E-04       4    7    1        -0.5769690633E-03      0.1202696780E-02

    ------------------------------------------------
       NWT REQUIRED            4 OUTER ITERATIONS 
       AND A TOTAL OF          7 INNER ITERATIONS.
    ------------------------------------------------

 NO OUTPUT CONTROL FOR STRESS PERIOD   12   TIME STEP   17
 
 SOLVING FOR HEAD 
                                                   Max.-Head-Change                         Max.-Flux-Residual
  Residual-Control   Outer-Iter.   Inner-Iter.     Column Row Layer    Maximum-Head-Change  Column Row Layer    Maximum-Flux-Residual          L2-NORM 
          0                 1           2             4    7     1       0.3770341477E-01       4    7    1         0.1986884487E+01      0.4148875853E+01
          0                 2           2             4    7     1      -0.3667544857E-02       4    7    1        -0.1986905359E+00      0.4148764573E+00
          0                 3           2             4    7     1       0.2497459079E-03       4    7    1         0.1390832378E-01      0.2904034203E-01
          0                 4           1             4    7     1      -0.9937624733E-05       4    7    1        -0.5688513229E-03      0.1187765218E-02

    ------------------------------------------------
       NWT REQUIRED            4 OUTER ITERATIONS 
       AND A TOTAL OF          7 INNER ITERATIONS.
    ------------------------------------------------

 NO OUTPUT CONTROL FOR STRESS PERIOD   12   TIME STEP   18
 
 SOLVING FOR HEAD 
                                                   Max.-Head-Change                         Max.-Flux-Residual
  Residual-Control   Outer-Iter.   Inner-Iter.     Column Row Layer    Maximum-Head-Change  Column Row Layer    Maximum-Flux-Residual          L2-NORM 
          0                 1           2             4    7     1       0.3717608034E-01       4    7    1         0.1959014821E+01      0.4097403624E+01
          0                 2           2             4    7     1      -0.3616248802E-02       4    7    1        -0.1959035152E+00      0.4097299101E+00
          0                 3           2             4    7     1       0.2462528445E-03       4    7    1         0.1371323275E-01      0.2868008579E-01
          0                 4           1             4    7     1      -0.9798632563E-05       4    7    1        -0.5608720887E-03      0.1173007927E-02

    ------------------------------------------------
       NWT REQUIRED            4 OUTER ITERATIONS 
       AND A TOTAL OF          7 INNER ITERATIONS.
    ------------------------------------------------

 NO OUTPUT CONTROL FOR STRESS PERIOD   12   TIME STEP   19
 
 SOLVING FOR HEAD 
                                                   Max.-Head-Change                         Max.-Flux-Residual
  Residual-Control   Outer-Iter.   Inner-Iter.     Column Row Layer    Maximum-Head-Change  Column Row Layer    Maximum-Flux-Residual          L2-NORM 
          0                 1           2             4    7     1       0.3665766500E-01       4    7    1         0.1931614609E+01      0.4046938374E+01
          0                 2           2             4    7     1      -0.3565817785E-02       4    7    1        -0.1931634411E+00      0.4045984459E+00
          0                 3           2             4    7     1       0.2428186864E-03       4    7    1         0.1352142797E-01      0.2832098338E-01
          0                 4           1             4    7     1      -0.9661983700E-05       4    7    1        -0.5530272406E-03      0.1158271076E-02

    ------------------------------------------------
       NWT REQUIRED            4 OUTER ITERATIONS 
       AND A TOTAL OF          7 INNER ITERATIONS.
    ------------------------------------------------

 NO OUTPUT CONTROL FOR STRESS PERIOD   12   TIME STEP   20
 
 SOLVING FOR HEAD 
                                                   Max.-Head-Change                         Max.-Flux-Residual
  Residual-Control   Outer-Iter.   Inner-Iter.     Column Row Layer    Maximum-Head-Change  Column Row Layer    Maximum-Flux-Residual          L2-NORM 
          0                 1           2             4    7     1       0.3614805087E-01       4    7    1         0.1904676968E+01      0.3997525552E+01
          0                 2           2             4    7     1      -0.3516248036E-02       4    7    1        -0.1904696253E+00      0.3997443077E+00
          0                 3           2             4    7     1       0.2394431783E-03       4    7    1         0.1333286130E-01      0.2798123496E-01
          0                 4           1             4    7     1      -0.9527669509E-05       4    7    1        -0.5453148676E-03      0.1144394142E-02

    ------------------------------------------------
       NWT REQUIRED            4 OUTER ITERATIONS 
       AND A TOTAL OF          7 INNER ITERATIONS.
    ------------------------------------------------

 NO OUTPUT CONTROL FOR STRESS PERIOD   12   TIME STEP   21
 
 SOLVING FOR HEAD 
                                                   Max.-Head-Change                         Max.-Flux-Residual
  Residual-Control   Outer-Iter.   Inner-Iter.     Column Row Layer    Maximum-Head-Change  Column Row Layer    Maximum-Flux-Residual          L2-NORM 
          0                 1           2             4    7     1       0.3564709660E-01       4    7    1         0.1878195375E+01      0.3949165893E+01
          0                 2           2             4    7     1      -0.3467518106E-02       4    7    1        -0.1878214156E+00      0.3949090601E+00
          0                 3           2             4    7     1       0.2361248577E-03       4    7    1         0.1314748700E-01      0.2764285177E-01
          0                 4           1             4    7     1      -0.9395630585E-05       4    7    1        -0.5377330526E-03      0.1130539344E-02

    ------------------------------------------------
       NWT REQUIRED            4 OUTER ITERATIONS 
       AND A TOTAL OF          7 INNER ITERATIONS.
    ------------------------------------------------

 NO OUTPUT CONTROL FOR STRESS PERIOD   12   TIME STEP   22
 
 SOLVING FOR HEAD 
                                                   Max.-Head-Change                         Max.-Flux-Residual
  Residual-Control   Outer-Iter.   Inner-Iter.     Column Row Layer    Maximum-Head-Change  Column Row Layer    Maximum-Flux-Residual          L2-NORM 
          0                 1           2             4    7     1       0.3515481121E-01       4    7    1         0.1852170246E+01      0.3901734687E+01
          0                 2           2             4    7     1      -0.3419631440E-02       4    7    1        -0.1852188536E+00      0.3901666166E+00
          0                 3           2             4    7     1       0.2328639605E-03       4    7    1         0.1296530805E-01      0.2731093883E-01
          0                 4           1             4    7     1      -0.9265876254E-05       4    7    1        -0.5302819256E-03      0.1116966976E-02

    ------------------------------------------------
       NWT REQUIRED            4 OUTER ITERATIONS 
       AND A TOTAL OF          7 INNER ITERATIONS.
    ------------------------------------------------

 NO OUTPUT CONTROL FOR STRESS PERIOD   12   TIME STEP   23
 
 SOLVING FOR HEAD 
                                                   Max.-Head-Change                         Max.-Flux-Residual
  Residual-Control   Outer-Iter.   Inner-Iter.     Column Row Layer    Maximum-Head-Change  Column Row Layer    Maximum-Flux-Residual          L2-NORM 
          0                 1           2             4    7     1       0.3467105021E-01       4    7    1         0.1826594581E+01      0.3855186394E+01
          0                 2           2             4    7     1      -0.3372573983E-02       4    7    1        -0.1826612391E+00      0.3855123198E+00
          0                 3           2             4    7     1       0.2296595288E-03       4    7    1         0.1278627542E-01      0.2698519173E-01
          0                 4           1             4    7     1      -0.9138368522E-05       4    7    1        -0.5229594622E-03      0.1103655126E-02

    ------------------------------------------------
       NWT REQUIRED            4 OUTER ITERATIONS 
       AND A TOTAL OF          7 INNER ITERATIONS.
    ------------------------------------------------

 NO OUTPUT CONTROL FOR STRESS PERIOD   12   TIME STEP   24
 
 SOLVING FOR HEAD 
                                                   Max.-Head-Change                         Max.-Flux-Residual
  Residual-Control   Outer-Iter.   Inner-Iter.     Column Row Layer    Maximum-Head-Change  Column Row Layer    Maximum-Flux-Residual          L2-NORM 
          0                 1           2             4    7     1       0.3419553609E-01       4    7    1         0.1801453550E+01      0.3809508897E+01
          0                 2           2             4    7     1      -0.3326318739E-02       4    7    1        -0.1801470893E+00      0.3809450660E+00
          0                 3           2             4    7     1       0.2265097249E-03       4    7    1         0.1261028529E-01      0.2666552108E-01
          0                 4           1             4    7     1      -0.9013034975E-05       4    7    1        -0.5157614598E-03      0.1090582695E-02

    ------------------------------------------------
       NWT REQUIRED            4 OUTER ITERATIONS 
       AND A TOTAL OF          7 INNER ITERATIONS.
    ------------------------------------------------

 NO OUTPUT CONTROL FOR STRESS PERIOD   12   TIME STEP   25
 
 SOLVING FOR HEAD 
                                                   Max.-Head-Change                         Max.-Flux-Residual
  Residual-Control   Outer-Iter.   Inner-Iter.     Column Row Layer    Maximum-Head-Change  Column Row Layer    Maximum-Flux-Residual          L2-NORM 
          0                 1           2             4    7     1       0.3372826969E-01       4    7    1         0.1776747437E+01      0.3764675251E+01
          0                 2           2             4    7     1      -0.3280865791E-02       4    7    1        -0.1776764325E+00      0.3764621528E+00
          0                 3           2             4    7     1       0.2234145539E-03       4    7    1         0.1243733966E-01      0.2635178651E-01
          0                 4           1             4    7     1      -0.8889874922E-05       4    7    1        -0.5086879530E-03      0.1077777125E-02

    ------------------------------------------------
       NWT REQUIRED            4 OUTER ITERATIONS 
       AND A TOTAL OF          7 INNER ITERATIONS.
    ------------------------------------------------

 NO OUTPUT CONTROL FOR STRESS PERIOD   12   TIME STEP   26
 
 SOLVING FOR HEAD 
                                                   Max.-Head-Change                         Max.-Flux-Residual
  Residual-Control   Outer-Iter.   Inner-Iter.     Column Row Layer    Maximum-Head-Change  Column Row Layer    Maximum-Flux-Residual          L2-NORM 
          0                 1           2             4    7     1       0.3326923700E-01       4    7    1         0.1752476287E+01      0.3720664670E+01
          0                 2           2             4    7     1      -0.3236213792E-02       4    7    1        -0.1752492731E+00      0.3720615368E+00
          0                 3           2             4    7     1       0.2203739236E-03       4    7    1         0.1226743887E-01      0.2604377599E-01
          0                 4           1             4    7     1      -0.8768885715E-05       4    7    1        -0.5017390145E-03      0.1065142429E-02

    ------------------------------------------------
       NWT REQUIRED            4 OUTER ITERATIONS 
       AND A TOTAL OF          7 INNER ITERATIONS.
    ------------------------------------------------

 NO OUTPUT CONTROL FOR STRESS PERIOD   12   TIME STEP   27
 
 SOLVING FOR HEAD 
                                                   Max.-Head-Change                         Max.-Flux-Residual
  Residual-Control   Outer-Iter.   Inner-Iter.     Column Row Layer    Maximum-Head-Change  Column Row Layer    Maximum-Flux-Residual          L2-NORM 
          0                 1           2             4    7     1       0.3281802287E-01       4    7    1         0.1728617363E+01      0.3677463034E+01
          0                 2           2             4    7     1      -0.3192322447E-02       4    7    1        -0.1728633375E+00      0.3677418977E+00
          0                 3           2             4    7     1       0.2173850921E-03       4    7    1         0.1210042371E-01      0.2574140559E-01
          0                 4           1             4    7     1      -0.8649957292E-05       4    7    1        -0.4949080853E-03      0.1052793566E-02

    ------------------------------------------------
       NWT REQUIRED            4 OUTER ITERATIONS 
       AND A TOTAL OF          7 INNER ITERATIONS.
    ------------------------------------------------

 NO OUTPUT CONTROL FOR STRESS PERIOD   12   TIME STEP   28
 
 SOLVING FOR HEAD 
                                                   Max.-Head-Change                         Max.-Flux-Residual
  Residual-Control   Outer-Iter.   Inner-Iter.     Column Row Layer    Maximum-Head-Change  Column Row Layer    Maximum-Flux-Residual          L2-NORM 
          0                 1           2             4    7     1       0.3237475683E-01       4    7    1         0.1705178483E+01      0.3635034058E+01
          0                 2           2             4    7     1      -0.3149204125E-02       4    7    1        -0.1705194074E+00      0.3634992864E+00
          0                 3           2             4    7     1       0.2144489003E-03       4    7    1         0.1193634893E-01      0.2544446177E-01
          0                 4           1             4    7     1      -0.8533123616E-05       4    7    1        -0.4881974230E-03      0.1040647169E-02

    ------------------------------------------------
       NWT REQUIRED            4 OUTER ITERATIONS 
       AND A TOTAL OF          7 INNER ITERATIONS.
    ------------------------------------------------

 NO OUTPUT CONTROL FOR STRESS PERIOD   12   TIME STEP   29
 
 SOLVING FOR HEAD 
                                                   Max.-Head-Change                         Max.-Flux-Residual
  Residual-Control   Outer-Iter.   Inner-Iter.     Column Row Layer    Maximum-Head-Change  Column Row Layer    Maximum-Flux-Residual          L2-NORM 
          0                 1           2             4    7     1       0.3193915306E-01       4    7    1         0.1682144364E+01      0.3594430452E+01
          0                 2           2             4    7     1      -0.3106831150E-02       4    7    1        -0.1682159545E+00      0.3594363749E+00
          0                 3           2             4    7     1       0.2115634633E-03       4    7    1         0.1177510752E-01      0.2515983964E-01
          0                 4           1             4    7     1      -0.8418309277E-05       4    7    1        -0.4816026355E-03      0.1029007508E-02

    ------------------------------------------------
       NWT REQUIRED            4 OUTER ITERATIONS 
       AND A TOTAL OF          7 INNER ITERATIONS.
    ------------------------------------------------

 NO OUTPUT CONTROL FOR STRESS PERIOD   12   TIME STEP   30



 STREAM LISTING     PERIOD     12   STEP       30

 LAYER ROW COL. STREAM  RCH.  FLOW INTO     FLOW TO   FLOW OUT OF   OVRLND.     DIRECT     STREAM       STREAM     STREAM     STREAM   STREAMBED  STREAMBED
                SEG.NO.  NO.  STRM. RCH.    AQUIFER    STRM. RCH.    RUNOFF     PRECIP       ET          HEAD       DEPTH      WIDTH   CONDCTNC.   GRADIENT

   1    1    1     1     1    2.5441E+01  2.4717E-01   2.5194E+01  0.000E+00  0.000E+00  0.000E+00  1.09423E+03  1.185E+00  1.313E+01  5.906E-02  1.395E+00
   1    2    2     1     2    2.5194E+01  3.8224E-01   2.4811E+01  0.000E+00  0.000E+00  0.000E+00  1.08924E+03  1.180E+00  1.306E+01  9.144E-02  1.393E+00
   1    3    3     1     3    2.4811E+01  3.2545E-01   2.4486E+01  0.000E+00  0.000E+00  0.000E+00  1.08359E+03  1.175E+00  1.299E+01  7.795E-02  1.392E+00
   1    3    4     1     4    2.4486E+01  2.9925E-01   2.4187E+01  0.000E+00  0.000E+00  0.000E+00  1.07858E+03  1.170E+00  1.293E+01  7.176E-02  1.390E+00
   1    4    5     2     1    2.2187E+01  3.2130E-01   2.1865E+01  0.000E+00  0.000E+00  0.000E+00  1.07305E+03  1.119E+00  1.200E+01  7.800E-02  1.373E+00
   1    5    6     2     2    2.1865E+01  2.4663E-01   2.1619E+01  0.000E+00  0.000E+00  0.000E+00  1.06762E+03  1.111E+00  1.200E+01  6.000E-02  1.370E+00
   1    6    6     2     3    2.1619E+01  2.4618E-01   2.1373E+01  0.000E+00  0.000E+00  0.000E+00  1.06290E+03  1.103E+00  1.200E+01  6.000E-02  1.368E+00
   1    7    6     2     4    2.1373E+01  2.4572E-01   2.1127E+01  0.000E+00  0.000E+00  0.000E+00  1.05817E+03  1.095E+00  1.200E+01  6.000E-02  1.365E+00
   1    8    6     2     5    2.1127E+01  2.4527E-01   2.0882E+01  0.000E+00  0.000E+00  0.000E+00  1.05345E+03  1.088E+00  1.200E+01  6.000E-02  1.363E+00
   1    3    5     3     1    2.0000E+00  2.8252E-01   1.7175E+00  0.000E+00  0.000E+00  0.000E+00  1.07555E+03  1.909E+00  9.636E+00  7.227E-02  1.955E+00
   1    3    6     3     2    1.7175E+00  2.4905E-01   1.4684E+00  0.000E+00  0.000E+00  0.000E+00  1.07264E+03  1.727E+00  8.909E+00  6.682E-02  1.864E+00
   1    3    7     3     3    1.4684E+00  1.9718E-01   1.2712E+00  0.000E+00  0.000E+00  0.000E+00  1.06987E+03  1.555E+00  8.218E+00  5.547E-02  1.777E+00
   1    4    8     3     4    1.2712E+00  2.2567E-01   1.0456E+00  0.000E+00  0.000E+00  0.000E+00  1.06682E+03  1.364E+00  7.455E+00  6.709E-02  1.682E+00
   1    5    8     3     5    1.0456E+00  1.5790E-01   8.8768E-01  0.000E+00  0.000E+00  0.000E+00  1.06362E+03  1.164E+00  6.655E+00  4.991E-02  1.582E+00
   1    6    8     3     6    8.8768E-01  5.5980E-02   8.3170E-01  0.000E+00  0.000E+00  0.000E+00  1.06158E+03  1.036E+00  6.145E+00  1.844E-02  1.518E+00
   1    5   10     4     1    1.0000E+01  9.0919E-02   9.9091E+00  0.000E+00  0.000E+00  0.000E+00  1.07836E+03  6.368E-01  1.000E+01  2.500E-02  1.212E+00
   1    5    9     4     2    9.9091E+00  1.8158E-01   9.7275E+00  0.000E+00  0.000E+00  0.000E+00  1.07154E+03  6.315E-01  1.000E+01  5.000E-02  1.211E+00
   1    6    8     4     3    9.7275E+00  1.2689E-01   9.6006E+00  0.000E+00  0.000E+00  0.000E+00  1.06381E+03  6.256E-01  1.000E+01  3.500E-02  1.209E+00
   1    6    8     5     1    1.0432E+01  2.2686E-01   1.0205E+01  0.000E+00  0.000E+00  0.000E+00  1.05868E+03  6.790E-01  1.542E+01  6.166E-02  1.226E+00
   1    7    7     5     2    1.0205E+01  2.7894E-01   9.9265E+00  0.000E+00  0.000E+00  0.000E+00  1.05417E+03  6.732E-01  1.519E+01  7.594E-02  1.224E+00
   1    8    7     5     3    9.9265E+00  1.9221E-01   9.7343E+00  0.000E+00  0.000E+00  0.000E+00  1.04992E+03  6.676E-01  1.497E+01  5.241E-02  1.223E+00
   1    8    6     5     4    9.7343E+00  1.3577E-01   9.5985E+00  0.000E+00  0.000E+00  0.000E+00  1.04691E+03  6.637E-01  1.482E+01  3.706E-02  1.221E+00
   1    9    6     6     1    3.0480E+01  2.6230E-01   3.0218E+01  0.000E+00  0.000E+00  0.000E+00  1.04410E+03  1.372E+00  1.200E+01  6.000E-02  1.457E+00
   1   10    7     6     2    3.0218E+01  2.6187E-01   2.9956E+01  0.000E+00  0.000E+00  0.000E+00  1.03955E+03  1.365E+00  1.200E+01  6.000E-02  1.455E+00
   1   11    7     6     3    2.9956E+01  2.6145E-01   2.9695E+01  0.000E+00  0.000E+00  0.000E+00  1.03499E+03  1.357E+00  1.200E+01  6.000E-02  1.452E+00
   1   12    7     6     4    2.9695E+01  2.6102E-01   2.9434E+01  0.000E+00  0.000E+00  0.000E+00  1.03044E+03  1.350E+00  1.200E+01  6.000E-02  1.450E+00
   1   13    7     6     5    2.9434E+01  1.2779E-03   2.9432E+01  0.000E+00  0.000E+00  0.000E+00  1.02726E+03  1.347E+00  1.200E+01  2.400E-02  1.775E-02
   1   14    9     7     1    1.5000E+02  1.3299E+00   1.4867E+02  0.000E+00  0.000E+00  0.000E+00  1.03987E+03  2.288E+00  5.529E+01  5.593E-01  7.926E-01
   1   13    8     7     2    1.4867E+02  1.7964E+00   1.4687E+02  0.000E+00  0.000E+00  0.000E+00  1.03478E+03  2.279E+00  5.526E+01  6.148E-01  9.740E-01
   1   13    7     7     3    1.4687E+02  1.3893E+00   1.4548E+02  0.000E+00  0.000E+00  0.000E+00  1.02969E+03  2.271E+00  5.522E+01  5.585E-01  8.292E-01
   1   13    6     8     1    1.7492E+02  8.6308E-01   1.7405E+02  0.000E+00  0.000E+00  0.000E+00  1.02486E+03  2.981E+00  4.323E+01  4.405E-01  6.531E-01
   1   13    5     8     2    1.7405E+02  1.2048E-01   1.7393E+02  0.000E+00  0.000E+00  0.000E+00  1.01860E+03  2.978E+00  4.318E+01  4.400E-01  9.127E-02
   1   13    4     8     3    1.7393E+02 -2.6215E+00   1.7655E+02  0.000E+00  0.000E+00  0.000E+00  1.01236E+03  2.986E+00  4.330E+01  4.412E+00 -1.980E-01
   1   13    3     8     4    1.7655E+02 -3.7642E+00   1.8032E+02  0.000E+00  0.000E+00  0.000E+00  1.00613E+03  3.006E+00  4.359E+01  4.442E+00 -2.825E-01
   1   13    2     8     5    1.8032E+02 -2.6299E+00   1.8295E+02  0.000E+00  0.000E+00  0.000E+00  9.99901E+02  3.026E+00  4.388E+01  4.472E+00 -1.960E-01
   1   13    1     8     6    1.8295E+02 -2.0230E+00   1.8497E+02  0.000E+00  0.000E+00  0.000E+00  9.94916E+02  3.041E+00  4.409E+01  2.696E+00 -2.501E-01





UNSATURATED ZONE PACKAGE VOLUMETRIC BUDGET FOR  TIME STEP    30 STRESS PERIOD   12
  ------------------------------------------------------------------------------



     CUMULATIVE VOLUMES      L**3       RATES FOR THIS TIME STEP      L**3/T
     ------------------                 ------------------------

           IN:                                      IN:
           ---                                      ---
        INFILTRATION =   527411407.3132          INFILTRATION =           4.4075

          OUT:                                     OUT:
          ----                                     ----
              UZF ET =   496185264.4917                UZF ET =           0.7250
        UZF RECHARGE =       73224.0000          UZF RECHARGE =       0.0000E+00

            IN - OUT =    31152918.8215              IN - OUT =           3.6825

          STORAGE:                                 STORAGE:
          --------                                 --------
      STORAGE CHANGE =    31153613.9697        STORAGE CHANGE =           3.6825

 PERCENT DISCREPANCY IS DIFFERENCE BETWEEN IN-OUT MINUS CHANGE IN STORAGE
 DIVIDED BY THE AVERAGE OF IN AND OUT TIMES 100

 PERCENT DISCREPANCY =          -0.00     PERCENT DISCREPANCY =           0.00






1
  VOLUMETRIC BUDGET FOR ENTIRE MODEL AT END OF TIME STEP   30, STRESS PERIOD  12
  ------------------------------------------------------------------------------

     CUMULATIVE VOLUMES      L**3       RATES FOR THIS TIME STEP      L**3/T
     ------------------                 ------------------------

           IN:                                      IN:
           ---                                      ---
               AG WELLS  =   399829152.0000                 AG WELLS  =           0.0000
      DIVERSION SEGMENTS =           0.0000        DIVERSION SEGMENTS =           0.0000
           GW IRRIGATION =           0.0000             GW IRRIGATION =           0.0000
           SW IRRIGATION =           0.0000             SW IRRIGATION =           0.0000
        SYSTEM LOSSES GW =           0.0000          SYSTEM LOSSES GW =           0.0000
        SYSTEM LOSSES SW =           0.0000          SYSTEM LOSSES SW =           0.0000

                TOTAL IN =   399829152.0000                  TOTAL IN =           0.0000

          OUT:                                     OUT:
          ----                                     ----
               AG WELLS  =           0.0000                 AG WELLS  =           0.0000
      DIVERSION SEGMENTS =           0.0000        DIVERSION SEGMENTS =           0.0000
           GW IRRIGATION =   399829152.0000             GW IRRIGATION =           0.0000
           SW IRRIGATION =           0.0000             SW IRRIGATION =           0.0000
        SYSTEM LOSSES GW =           0.0000          SYSTEM LOSSES GW =           0.0000
        SYSTEM LOSSES SW =           0.0000          SYSTEM LOSSES SW =           0.0000

               TOTAL OUT =   399829152.0000                 TOTAL OUT =           0.0000

                IN - OUT =           0.0000                  IN - OUT =           0.0000

     PERCENT DISCREPANCY =           0.00         PERCENT DISCREPANCY =           0.00



1
  VOLUMETRIC BUDGET FOR ENTIRE MODEL AT END OF TIME STEP   30, STRESS PERIOD  12
  ------------------------------------------------------------------------------

     CUMULATIVE VOLUMES      L**3       RATES FOR THIS TIME STEP      L**3/T
     ------------------                 ------------------------

           IN:                                      IN:
           ---                                      ---
             STORAGE     =   506326912.0000               STORAGE     =           9.8755
       CONSTANT HEAD     =           0.0000         CONSTANT HEAD     =           0.0000
     HEAD DEP BOUNDS     =     8282451.0000       HEAD DEP BOUNDS     =           0.2854
      STREAM LEAKAGE     =   364394240.0000        STREAM LEAKAGE     =          11.5077
        UZF RECHARGE     =       73223.9531          UZF RECHARGE     =           0.0000
               GW ET     =           0.0000                 GW ET     =           0.0000
     SURFACE LEAKAGE     =           0.0000       SURFACE LEAKAGE     =           0.0000
           AG WELLS      =           0.0000             AG WELLS      =           0.0000

                TOTAL IN =   879076864.0000                  TOTAL IN =          21.6686

          OUT:                                     OUT:
          ----                                     ----
             STORAGE     =   157201456.0000               STORAGE     =          10.3387
       CONSTANT HEAD     =           0.0000         CONSTANT HEAD     =           0.0000
     HEAD DEP BOUNDS     =     8560228.0000       HEAD DEP BOUNDS     =           0.2913
      STREAM LEAKAGE     =   299904256.0000        STREAM LEAKAGE     =          11.0386
        UZF RECHARGE     =           0.0000          UZF RECHARGE     =           0.0000
               GW ET     =    13586479.0000                 GW ET     =           0.0000
     SURFACE LEAKAGE     =           0.0000       SURFACE LEAKAGE     =           0.0000
           AG WELLS      =   399829152.0000             AG WELLS      =           0.0000

               TOTAL OUT =   879081536.0000                 TOTAL OUT =          21.6686

                IN - OUT =       -4672.0000                  IN - OUT =       3.8147E-06

     PERCENT DISCREPANCY =          -0.00         PERCENT DISCREPANCY =           0.00






         TIME SUMMARY AT END OF TIME STEP   30 IN STRESS PERIOD   12
                    SECONDS     MINUTES      HOURS       DAYS        YEARS
                    -----------------------------------------------------------
   TIME STEP LENGTH  87667.      1461.1      24.352      1.0147     2.77799E-03
 STRESS PERIOD TIME 2.63000E+06  43833.      730.56      30.440     8.33397E-02
         TOTAL TIME 2.90163E+07 4.83606E+05  8060.1      335.84     0.91947    
1
1
                            STRESS PERIOD NO.   13, LENGTH =   2630000.    
                            -----------------------------------------------

                              NUMBER OF TIME STEPS =    30

                               MULTIPLIER FOR DELT =     1.000

                            INITIAL TIME STEP SIZE =   87666.66    

 REUSING NON-PARAMETER GHB CELLS FROM LAST STRESS PERIOD

      2 GHB CELLS

 REUSING STREAM SEGMENT DATA FROM LAST STRESS PERIOD



            AREAL INFILTRATION RATE
 READING ON UNIT   19 WITH FORMAT: (10F4.0)            

            1           2           3           4           5           6           7           8           9          10
 ........................................................................................................................
   1   1.2000E-09   0.000       0.000       0.000       0.000       0.000       0.000       0.000       0.000       0.000    
   2   2.1000E-09  2.0000E-09  8.0000E-10  8.5000E-09   0.000       0.000       0.000       0.000       0.000       0.000    
   3   5.0000E-10  1.1000E-09  8.8000E-09  5.5000E-09   0.000       0.000       0.000       0.000       0.000       0.000    
   4   8.5000E-09  1.1000E-09  1.1000E-09  1.1000E-09  2.0000E-09   0.000       0.000       0.000       0.000       0.000    
   5   8.5000E-09  1.1000E-09  1.1000E-09  1.1000E-09  1.1000E-09   0.000       0.000       0.000       0.000       0.000    
   6   8.5000E-09  5.2000E-09  2.1000E-09  1.1000E-09  1.5000E-09   0.000       0.000       0.000       0.000       0.000    
   7   8.5000E-09  5.2000E-09  2.1000E-09  1.2000E-09  2.0000E-09   0.000       0.000       0.000       0.000       0.000    
   8   5.0000E-10  5.2000E-09  2.1000E-09  1.2000E-09  5.0000E-09   0.000       0.000       0.000       0.000       0.000    
   9   5.0000E-10  5.2000E-09  2.1000E-09  1.2000E-09  5.0000E-09   0.000       0.000       0.000       0.000       0.000    
  10   5.0000E-10  5.2000E-09  2.1000E-09  1.2000E-09  5.8000E-09   0.000       0.000       0.000       0.000       0.000    
  11   1.0000E-10  1.1000E-09  1.1000E-09  1.2000E-09  5.0000E-09   0.000       0.000       0.000       0.000       0.000    
  12   1.1000E-09  1.1000E-09  1.1000E-09  1.1000E-09  2.0000E-09   0.000       0.000       0.000       0.000       0.000    
  13   1.1000E-09  2.2000E-09  2.2000E-09  2.1000E-09  1.0000E-09   0.000       0.000       0.000       0.000       0.000    
  14   2.0000E-10  5.5000E-09  5.5000E-09  5.2000E-09  1.0000E-09   0.000       0.000       0.000       0.000       0.000    
  15    0.000      8.8000E-09  8.8000E-09   0.000       0.000       0.000       0.000       0.000       0.000       0.000    

                  ET RATE =  5.000000E-10

 USING ET EXTINCTION DEPTH FROM PREVIOUS STRESS PERIOD. CURRENT PERIOD IS:      13

 USING EXTINCTION WATER CONTENT FROM PREVIOUS STRESS PERIOD. CURRENT PERIOD IS:      13

 USING AIR ENTRY PRESSURE FROM PREVIOUS STRESS PERIOD. CURRENT PERIOD IS:      13

 USING ROOT PRESSURE HEAD FROM PREVIOUS STRESS PERIOD. CURRENT PERIOD IS:      13

 USING ROOT ACTIVITY FROM PREVIOUS STRESS PERIOD. CURRENT PERIOD IS:      13

 PROCESSING AG STRESS PERIOD DATA

 READING AG STRESS PERIOD DATA

 READING IRRIGATION WELL

 END PROCESSING AG STRESS PERIOD DATA OPTIONS
 
 SOLVING FOR HEAD 
                                                   Max.-Head-Change                         Max.-Flux-Residual
  Residual-Control   Outer-Iter.   Inner-Iter.     Column Row Layer    Maximum-Head-Change  Column Row Layer    Maximum-Flux-Residual          L2-NORM 
          0                 1           2             4    7     1       0.3151118261E-01       4    7    1         0.1659514856E+01      0.3559633636E+01
          0                 2           2             4    7     1      -0.3065200706E-02       4    7    1        -0.1659529639E+00      0.3559176046E+00
          0                 3           2             4    7     1       0.2087285905E-03       4    7    1         0.1161669851E-01      0.2491191365E-01
          0                 4           1             4    7     1      -0.8305506909E-05       4    7    1        -0.4751236957E-03      0.1018865213E-02

    ------------------------------------------------
       NWT REQUIRED            4 OUTER ITERATIONS 
       AND A TOTAL OF          7 INNER ITERATIONS.
    ------------------------------------------------

 NO OUTPUT CONTROL FOR STRESS PERIOD   13   TIME STEP    1
 
 SOLVING FOR HEAD 
                                                   Max.-Head-Change                         Max.-Flux-Residual
  Residual-Control   Outer-Iter.   Inner-Iter.     Column Row Layer    Maximum-Head-Change  Column Row Layer    Maximum-Flux-Residual          L2-NORM 
          0                 1           2             4    7     1       0.3109056935E-01       4    7    1         0.1637273780E+01      0.3519029270E+01
          0                 2           2             4    7     1      -0.3024285931E-02       4    7    1        -0.1637288175E+00      0.3518797670E+00
          0                 3           2             4    7     1       0.2059424516E-03       4    7    1         0.1146100856E-01      0.2462937427E-01
          0                 4           1             4    7     1      -0.8194643635E-05       4    7    1        -0.4687559604E-03      0.1007215275E-02

    ------------------------------------------------
       NWT REQUIRED            4 OUTER ITERATIONS 
       AND A TOTAL OF          7 INNER ITERATIONS.
    ------------------------------------------------

 NO OUTPUT CONTROL FOR STRESS PERIOD   13   TIME STEP    2
 
 SOLVING FOR HEAD 
                                                   Max.-Head-Change                         Max.-Flux-Residual
  Residual-Control   Outer-Iter.   Inner-Iter.     Column Row Layer    Maximum-Head-Change  Column Row Layer    Maximum-Flux-Residual          L2-NORM 
          0                 1           2             4    7     1       0.3067743792E-01       4    7    1         0.1615428838E+01      0.3479146193E+01
          0                 2           2             4    7     1      -0.2984098952E-02       4    7    1        -0.1615442857E+00      0.3478939554E+00
          0                 3           2             4    7     1       0.2032058730E-03       4    7    1         0.1130809163E-01      0.2435066157E-01
          0                 4           1             4    7     1      -0.8085752612E-05       4    7    1        -0.4625016527E-03      0.9958571784E-03

    ------------------------------------------------
       NWT REQUIRED            4 OUTER ITERATIONS 
       AND A TOTAL OF          7 INNER ITERATIONS.
    ------------------------------------------------

 NO OUTPUT CONTROL FOR STRESS PERIOD   13   TIME STEP    3
 
 SOLVING FOR HEAD 
                                                   Max.-Head-Change                         Max.-Flux-Residual
  Residual-Control   Outer-Iter.   Inner-Iter.     Column Row Layer    Maximum-Head-Change  Column Row Layer    Maximum-Flux-Residual          L2-NORM 
          0                 1           2             4    7     1       0.3027124003E-01       4    7    1         0.1593949795E+01      0.3439997140E+01
          0                 2           2             4    7     1      -0.2944586429E-02       4    7    1        -0.1593963446E+00      0.3439810410E+00
          0                 3           2             4    7     1       0.2005152216E-03       4    7    1         0.1115773602E-01      0.2407684761E-01
          0                 4           1             4    7     1      -0.7978689124E-05       4    7    1        -0.4563521022E-03      0.9846130090E-03

    ------------------------------------------------
       NWT REQUIRED            4 OUTER ITERATIONS 
       AND A TOTAL OF          7 INNER ITERATIONS.
    ------------------------------------------------

 NO OUTPUT CONTROL FOR STRESS PERIOD   13   TIME STEP    4
 
 SOLVING FOR HEAD 
                                                   Max.-Head-Change                         Max.-Flux-Residual
  Residual-Control   Outer-Iter.   Inner-Iter.     Column Row Layer    Maximum-Head-Change  Column Row Layer    Maximum-Flux-Residual          L2-NORM 
          0                 1           2             4    7     1       0.2987224802E-01       4    7    1         0.1572852261E+01      0.3401559964E+01
          0                 2           2             4    7     1      -0.2905774858E-02       4    7    1        -0.1572865556E+00      0.3401390193E+00
          0                 3           2             4    7     1       0.1978723029E-03       4    7    1         0.1101005107E-01      0.2380810759E-01
          0                 4           1             4    7     1      -0.7873525127E-05       4    7    1        -0.4503117780E-03      0.9736295067E-03

    ------------------------------------------------
       NWT REQUIRED            4 OUTER ITERATIONS 
       AND A TOTAL OF          7 INNER ITERATIONS.
    ------------------------------------------------

 NO OUTPUT CONTROL FOR STRESS PERIOD   13   TIME STEP    5
 
 SOLVING FOR HEAD 
                                                   Max.-Head-Change                         Max.-Flux-Residual
  Residual-Control   Outer-Iter.   Inner-Iter.     Column Row Layer    Maximum-Head-Change  Column Row Layer    Maximum-Flux-Residual          L2-NORM 
          0                 1           2             4    7     1       0.2948018146E-01       4    7    1         0.1552120998E+01      0.3363815099E+01
          0                 2           2             4    7     1      -0.2867636959E-02       4    7    1        -0.1552133945E+00      0.3363663036E+00
          0                 3           2             4    7     1       0.1952752584E-03       4    7    1         0.1086493006E-01      0.2354419455E-01
          0                 4           1             4    7     1      -0.7770186363E-05       4    7    1        -0.4443763219E-03      0.9628712999E-03

    ------------------------------------------------
       NWT REQUIRED            4 OUTER ITERATIONS 
       AND A TOTAL OF          7 INNER ITERATIONS.
    ------------------------------------------------

 NO OUTPUT CONTROL FOR STRESS PERIOD   13   TIME STEP    6
 
 SOLVING FOR HEAD 
                                                   Max.-Head-Change                         Max.-Flux-Residual
  Residual-Control   Outer-Iter.   Inner-Iter.     Column Row Layer    Maximum-Head-Change  Column Row Layer    Maximum-Flux-Residual          L2-NORM 
          0                 1           2             4    7     1       0.2909490404E-01       4    7    1         0.1531748805E+01      0.3326736561E+01
          0                 2           2             4    7     1      -0.2830159473E-02       4    7    1        -0.1531761415E+00      0.3326599082E+00
          0                 3           2             4    7     1       0.1927231849E-03       4    7    1         0.1072232258E-01      0.2328484404E-01
          0                 4           1             4    7     1      -0.7668636681E-05       4    7    1        -0.4385436534E-03      0.9522704573E-03

    ------------------------------------------------
       NWT REQUIRED            4 OUTER ITERATIONS 
       AND A TOTAL OF          7 INNER ITERATIONS.
    ------------------------------------------------

 NO OUTPUT CONTROL FOR STRESS PERIOD   13   TIME STEP    7
 
 SOLVING FOR HEAD 
                                                   Max.-Head-Change                         Max.-Flux-Residual
  Residual-Control   Outer-Iter.   Inner-Iter.     Column Row Layer    Maximum-Head-Change  Column Row Layer    Maximum-Flux-Residual          L2-NORM 
          0                 1           2             4    7     1       0.2871641287E-01       4    7    1         0.1511735958E+01      0.3290306692E+01
          0                 2           2             4    7     1      -0.2793342118E-02       4    7    1        -0.1511748240E+00      0.3290180921E+00
          0                 3           2             4    7     1       0.1902160648E-03       4    7    1         0.1058223063E-01      0.2302998532E-01
          0                 4           1             4    7     1      -0.7568875968E-05       4    7    1        -0.4328138966E-03      0.9418332290E-03

    ------------------------------------------------
       NWT REQUIRED            4 OUTER ITERATIONS 
       AND A TOTAL OF          7 INNER ITERATIONS.
    ------------------------------------------------

 NO OUTPUT CONTROL FOR STRESS PERIOD   13   TIME STEP    8
 
 SOLVING FOR HEAD 
                                                   Max.-Head-Change                         Max.-Flux-Residual
  Residual-Control   Outer-Iter.   Inner-Iter.     Column Row Layer    Maximum-Head-Change  Column Row Layer    Maximum-Flux-Residual          L2-NORM 
          0                 1           2             4    7     1       0.2834429941E-01       4    7    1         0.1492060280E+01      0.3254505817E+01
          0                 2           2             4    7     1      -0.2757145151E-02       4    7    1        -0.1492072242E+00      0.3254392129E+00
          0                 3           2             4    7     1       0.1877511899E-03       4    7    1         0.1044449889E-01      0.2277967462E-01
          0                 4           1             4    7     1      -0.7470796002E-05       4    7    1        -0.4271806408E-03      0.9316828351E-03

    ------------------------------------------------
       NWT REQUIRED            4 OUTER ITERATIONS 
       AND A TOTAL OF          7 INNER ITERATIONS.
    ------------------------------------------------

 NO OUTPUT CONTROL FOR STRESS PERIOD   13   TIME STEP    9
 
 SOLVING FOR HEAD 
                                                   Max.-Head-Change                         Max.-Flux-Residual
  Residual-Control   Outer-Iter.   Inner-Iter.     Column Row Layer    Maximum-Head-Change  Column Row Layer    Maximum-Flux-Residual          L2-NORM 
          0                 1           2             4    7     1       0.2797883940E-01       4    7    1         0.1472737301E+01      0.3219328210E+01
          0                 2           2             4    7     1      -0.2721595399E-02       4    7    1        -0.1472748953E+00      0.3219223840E+00
          0                 3           2             4    7     1       0.1853303880E-03       4    7    1         0.1030923609E-01      0.2253348805E-01
          0                 4           1             4    7     1      -0.7374470235E-05       4    7    1        -0.4216483806E-03      0.9214958346E-03

    ------------------------------------------------
       NWT REQUIRED            4 OUTER ITERATIONS 
       AND A TOTAL OF          7 INNER ITERATIONS.
    ------------------------------------------------

 NO OUTPUT CONTROL FOR STRESS PERIOD   13   TIME STEP   10
 
 SOLVING FOR HEAD 
                                                   Max.-Head-Change                         Max.-Flux-Residual
  Residual-Control   Outer-Iter.   Inner-Iter.     Column Row Layer    Maximum-Head-Change  Column Row Layer    Maximum-Flux-Residual          L2-NORM 
          0                 1           2             4    7     1       0.2761949066E-01       4    7    1         0.1453737261E+01      0.3184740587E+01
          0                 2           2             4    7     1      -0.2686640119E-02       4    7    1        -0.1453748612E+00      0.3184645284E+00
          0                 3           2             4    7     1       0.1829500675E-03       4    7    1         0.1017623392E-01      0.2229158656E-01
          0                 4           1             4    7     1      -0.7279755334E-05       4    7    1        -0.4162086022E-03      0.9116844375E-03

    ------------------------------------------------
       NWT REQUIRED            4 OUTER ITERATIONS 
       AND A TOTAL OF          7 INNER ITERATIONS.
    ------------------------------------------------

 NO OUTPUT CONTROL FOR STRESS PERIOD   13   TIME STEP   11
 
 SOLVING FOR HEAD 
                                                   Max.-Head-Change                         Max.-Flux-Residual
  Residual-Control   Outer-Iter.   Inner-Iter.     Column Row Layer    Maximum-Head-Change  Column Row Layer    Maximum-Flux-Residual          L2-NORM 
          0                 1           2             4    7     1       0.2726653156E-01       4    7    1         0.1435076110E+01      0.3150733096E+01
          0                 2           2             4    7     1      -0.2652306390E-02       4    7    1        -0.1435087167E+00      0.3150645281E+00
          0                 3           2             4    7     1       0.1806120721E-03       4    7    1         0.1004560406E-01      0.2205367477E-01
          0                 4           1             4    7     1      -0.7186723713E-05       4    7    1        -0.4108658127E-03      0.9019526053E-03

    ------------------------------------------------
       NWT REQUIRED            4 OUTER ITERATIONS 
       AND A TOTAL OF          7 INNER ITERATIONS.
    ------------------------------------------------

 NO OUTPUT CONTROL FOR STRESS PERIOD   13   TIME STEP   12
 
 SOLVING FOR HEAD 
                                                   Max.-Head-Change                         Max.-Flux-Residual
  Residual-Control   Outer-Iter.   Inner-Iter.     Column Row Layer    Maximum-Head-Change  Column Row Layer    Maximum-Flux-Residual          L2-NORM 
          0                 1           2             4    7     1       0.2691955695E-01       4    7    1         0.1416731562E+01      0.3117294449E+01
          0                 2           2             4    7     1      -0.2618554799E-02       4    7    1        -0.1416742334E+00      0.3117213151E+00
          0                 3           2             4    7     1       0.1783137181E-03       4    7    1         0.9917190414E-02      0.2181965182E-01
          0                 4           1             4    7     1      -0.7095270492E-05       4    7    1        -0.4056137072E-03      0.8923418333E-03

    ------------------------------------------------
       NWT REQUIRED            4 OUTER ITERATIONS 
       AND A TOTAL OF          7 INNER ITERATIONS.
    ------------------------------------------------

 NO OUTPUT CONTROL FOR STRESS PERIOD   13   TIME STEP   13
 
 SOLVING FOR HEAD 
                                                   Max.-Head-Change                         Max.-Flux-Residual
  Residual-Control   Outer-Iter.   Inner-Iter.     Column Row Layer    Maximum-Head-Change  Column Row Layer    Maximum-Flux-Residual          L2-NORM 
          0                 1           2             4    7     1       0.2657858104E-01       4    7    1         0.1398704641E+01      0.3084420749E+01
          0                 2           2             4    7     1      -0.2585386731E-02       4    7    1        -0.1398715136E+00      0.3084327524E+00
          0                 3           2             4    7     1       0.1760550996E-03       4    7    1         0.9791000258E-02      0.2158978285E-01
          0                 4           1             4    7     1      -0.7005397973E-05       4    7    1        -0.4004525053E-03      0.8829687194E-03

    ------------------------------------------------
       NWT REQUIRED            4 OUTER ITERATIONS 
       AND A TOTAL OF          7 INNER ITERATIONS.
    ------------------------------------------------

 NO OUTPUT CONTROL FOR STRESS PERIOD   13   TIME STEP   14
 
 SOLVING FOR HEAD 
                                                   Max.-Head-Change                         Max.-Flux-Residual
  Residual-Control   Outer-Iter.   Inner-Iter.     Column Row Layer    Maximum-Head-Change  Column Row Layer    Maximum-Flux-Residual          L2-NORM 
          0                 1           2             4    7     1       0.2624347360E-01       4    7    1         0.1380988743E+01      0.3052081408E+01
          0                 2           2             4    7     1      -0.2552789517E-02       4    7    1        -0.1380998968E+00      0.3052014432E+00
          0                 3           2             4    7     1       0.1738353541E-03       4    7    1         0.9666987284E-02      0.2136344502E-01
          0                 4           1             4    7     1      -0.6917072078E-05       4    7    1        -0.3953803709E-03      0.8737165488E-03

    ------------------------------------------------
       NWT REQUIRED            4 OUTER ITERATIONS 
       AND A TOTAL OF          7 INNER ITERATIONS.
    ------------------------------------------------

 NO OUTPUT CONTROL FOR STRESS PERIOD   13   TIME STEP   15
 
 SOLVING FOR HEAD 
                                                   Max.-Head-Change                         Max.-Flux-Residual
  Residual-Control   Outer-Iter.   Inner-Iter.     Column Row Layer    Maximum-Head-Change  Column Row Layer    Maximum-Flux-Residual          L2-NORM 
          0                 1           2             4    7     1       0.2591411163E-01       4    7    1         0.1363577114E+01      0.3020267016E+01
          0                 2           2             4    7     1      -0.2520751190E-02       4    7    1        -0.1363587077E+00      0.3020204938E+00
          0                 3           2             4    7     1       0.1716536667E-03       4    7    1         0.9545104236E-02      0.2114084166E-01
          0                 4           1             4    7     1      -0.6830260572E-05       4    7    1        -0.3903953509E-03      0.8646660486E-03

    ------------------------------------------------
       NWT REQUIRED            4 OUTER ITERATIONS 
       AND A TOTAL OF          7 INNER ITERATIONS.
    ------------------------------------------------

 NO OUTPUT CONTROL FOR STRESS PERIOD   13   TIME STEP   16
 
 SOLVING FOR HEAD 
                                                   Max.-Head-Change                         Max.-Flux-Residual
  Residual-Control   Outer-Iter.   Inner-Iter.     Column Row Layer    Maximum-Head-Change  Column Row Layer    Maximum-Flux-Residual          L2-NORM 
          0                 1           2             4    7     1       0.2559024129E-01       4    7    1         0.1346456030E+01      0.2988979032E+01
          0                 2           2             4    7     1      -0.2489247061E-02       4    7    1        -0.1346465738E+00      0.2988920869E+00
          0                 3           2             4    7     1       0.1695083560E-03       4    7    1         0.9425255063E-02      0.2092185388E-01
          0                 4           1             4    7     1      -0.6744896680E-05       4    7    1        -0.3854935037E-03      0.8556787745E-03

    ------------------------------------------------
       NWT REQUIRED            4 OUTER ITERATIONS 
       AND A TOTAL OF          7 INNER ITERATIONS.
    ------------------------------------------------

 NO OUTPUT CONTROL FOR STRESS PERIOD   13   TIME STEP   17
 
 SOLVING FOR HEAD 
                                                   Max.-Head-Change                         Max.-Flux-Residual
  Residual-Control   Outer-Iter.   Inner-Iter.     Column Row Layer    Maximum-Head-Change  Column Row Layer    Maximum-Flux-Residual          L2-NORM 
          0                 1           2             4    7     1       0.2527215045E-01       4    7    1         0.1329641716E+01      0.2958185264E+01
          0                 2           2             4    7     1      -0.2458305129E-02       4    7    1        -0.1329651177E+00      0.2958131075E+00
          0                 3           2             4    7     1       0.1674013288E-03       4    7    1         0.9307553312E-02      0.2070636688E-01
          0                 4           1             4    7     1      -0.6661056386E-05       4    7    1        -0.3806795098E-03      0.8468664024E-03

    ------------------------------------------------
       NWT REQUIRED            4 OUTER ITERATIONS 
       AND A TOTAL OF          7 INNER ITERATIONS.
    ------------------------------------------------

 NO OUTPUT CONTROL FOR STRESS PERIOD   13   TIME STEP   18
 
 SOLVING FOR HEAD 
                                                   Max.-Head-Change                         Max.-Flux-Residual
  Residual-Control   Outer-Iter.   Inner-Iter.     Column Row Layer    Maximum-Head-Change  Column Row Layer    Maximum-Flux-Residual          L2-NORM 
          0                 1           2             4    7     1       0.2495930597E-01       4    7    1         0.1313105018E+01      0.2927889320E+01
          0                 2           2             4    7     1      -0.2427873536E-02       4    7    1        -0.1313114239E+00      0.2927838629E+00
          0                 3           2             4    7     1       0.1653290534E-03       4    7    1         0.9191794927E-02      0.2049436039E-01
          0                 4           1             4    7     1      -0.6578598200E-05       4    7    1        -0.3759449653E-03      0.8381955065E-03

    ------------------------------------------------
       NWT REQUIRED            4 OUTER ITERATIONS 
       AND A TOTAL OF          7 INNER ITERATIONS.
    ------------------------------------------------

 NO OUTPUT CONTROL FOR STRESS PERIOD   13   TIME STEP   19
 
 SOLVING FOR HEAD 
                                                   Max.-Head-Change                         Max.-Flux-Residual
  Residual-Control   Outer-Iter.   Inner-Iter.     Column Row Layer    Maximum-Head-Change  Column Row Layer    Maximum-Flux-Residual          L2-NORM 
          0                 1           2             4    7     1       0.2465187046E-01       4    7    1         0.1296855029E+01      0.2898075147E+01
          0                 2           2             4    7     1      -0.2397968098E-02       4    7    1        -0.1296864016E+00      0.2898027294E+00
          0                 3           2             4    7     1       0.1632926073E-03       4    7    1         0.9078043528E-02      0.2028568579E-01
          0                 4           1             4    7     1      -0.6497566329E-05       4    7    1        -0.3712925272E-03      0.8296486746E-03

    ------------------------------------------------
       NWT REQUIRED            4 OUTER ITERATIONS 
       AND A TOTAL OF          7 INNER ITERATIONS.
    ------------------------------------------------

 NO OUTPUT CONTROL FOR STRESS PERIOD   13   TIME STEP   20
 
 SOLVING FOR HEAD 
                                                   Max.-Head-Change                         Max.-Flux-Residual
  Residual-Control   Outer-Iter.   Inner-Iter.     Column Row Layer    Maximum-Head-Change  Column Row Layer    Maximum-Flux-Residual          L2-NORM 
          0                 1           2             4    7     1       0.2434959052E-01       4    7    1         0.1280878138E+01      0.2868734167E+01
          0                 2           2             4    7     1      -0.2368564166E-02       4    7    1        -0.1280886897E+00      0.2868689622E+00
          0                 3           2             4    7     1       0.1612903117E-03       4    7    1         0.8966203858E-02      0.2008035907E-01
          0                 4           1             4    7     1      -0.6417893309E-05       4    7    1        -0.3667182871E-03      0.8212551314E-03

    ------------------------------------------------
       NWT REQUIRED            4 OUTER ITERATIONS 
       AND A TOTAL OF          7 INNER ITERATIONS.
    ------------------------------------------------

 NO OUTPUT CONTROL FOR STRESS PERIOD   13   TIME STEP   21
 
 SOLVING FOR HEAD 
                                                   Max.-Head-Change                         Max.-Flux-Residual
  Residual-Control   Outer-Iter.   Inner-Iter.     Column Row Layer    Maximum-Head-Change  Column Row Layer    Maximum-Flux-Residual          L2-NORM 
          0                 1           2             4    7     1       0.2405248946E-01       4    7    1         0.1265175901E+01      0.2839841386E+01
          0                 2           2             4    7     1      -0.2339664008E-02       4    7    1        -0.1265184440E+00      0.2839799131E+00
          0                 3           2             4    7     1       0.1593223219E-03       4    7    1         0.8856286830E-02      0.1987815379E-01
          0                 4           1             4    7     1      -0.6339585127E-05       4    7    1        -0.3622226934E-03      0.8129733559E-03

    ------------------------------------------------
       NWT REQUIRED            4 OUTER ITERATIONS 
       AND A TOTAL OF          7 INNER ITERATIONS.
    ------------------------------------------------

 NO OUTPUT CONTROL FOR STRESS PERIOD   13   TIME STEP   22
 
 SOLVING FOR HEAD 
                                                   Max.-Head-Change                         Max.-Flux-Residual
  Residual-Control   Outer-Iter.   Inner-Iter.     Column Row Layer    Maximum-Head-Change  Column Row Layer    Maximum-Flux-Residual          L2-NORM 
          0                 1           2             4    7     1       0.2376032146E-01       4    7    1         0.1249734832E+01      0.2811407343E+01
          0                 2           2             4    7     1      -0.2311243710E-02       4    7    1        -0.1249743156E+00      0.2811367471E+00
          0                 3           2             4    7     1       0.1573870073E-03       4    7    1         0.8748197979E-02      0.1967914211E-01
          0                 4           1             4    7     1      -0.6262576851E-05       4    7    1        -0.3578018229E-03      0.8048499953E-03

    ------------------------------------------------
       NWT REQUIRED            4 OUTER ITERATIONS 
       AND A TOTAL OF          7 INNER ITERATIONS.
    ------------------------------------------------

 NO OUTPUT CONTROL FOR STRESS PERIOD   13   TIME STEP   23
 
 SOLVING FOR HEAD 
                                                   Max.-Head-Change                         Max.-Flux-Residual
  Residual-Control   Outer-Iter.   Inner-Iter.     Column Row Layer    Maximum-Head-Change  Column Row Layer    Maximum-Flux-Residual          L2-NORM 
          0                 1           2             4    7     1       0.2347311618E-01       4    7    1         0.1234556882E+01      0.2783410890E+01
          0                 2           2             4    7     1      -0.2283306160E-02       4    7    1        -0.1234564997E+00      0.2783372970E+00
          0                 3           2             4    7     1       0.1554845673E-03       4    7    1         0.8641951034E-02      0.1948321626E-01
          0                 4           1             4    7     1      -0.6186877345E-05       4    7    1        -0.3534563371E-03      0.7968247754E-03

    ------------------------------------------------
       NWT REQUIRED            4 OUTER ITERATIONS 
       AND A TOTAL OF          7 INNER ITERATIONS.
    ------------------------------------------------

 NO OUTPUT CONTROL FOR STRESS PERIOD   13   TIME STEP   24
 
 SOLVING FOR HEAD 
                                                   Max.-Head-Change                         Max.-Flux-Residual
  Residual-Control   Outer-Iter.   Inner-Iter.     Column Row Layer    Maximum-Head-Change  Column Row Layer    Maximum-Flux-Residual          L2-NORM 
          0                 1           2             4    7     1       0.2319063126E-01       4    7    1         0.1219628891E+01      0.2755845175E+01
          0                 2           2             4    7     1      -0.2255827779E-02       4    7    1        -0.1219636802E+00      0.2755809065E+00
          0                 3           2             4    7     1       0.1536133944E-03       4    7    1         0.8537453823E-02      0.1929027138E-01
          0                 4           1             4    7     1      -0.6112421678E-05       4    7    1        -0.3491823991E-03      0.7889442207E-03

    ------------------------------------------------
       NWT REQUIRED            4 OUTER ITERATIONS 
       AND A TOTAL OF          7 INNER ITERATIONS.
    ------------------------------------------------

 NO OUTPUT CONTROL FOR STRESS PERIOD   13   TIME STEP   25
 
 SOLVING FOR HEAD 
                                                   Max.-Head-Change                         Max.-Flux-Residual
  Residual-Control   Outer-Iter.   Inner-Iter.     Column Row Layer    Maximum-Head-Change  Column Row Layer    Maximum-Flux-Residual          L2-NORM 
          0                 1           2             4    7     1       0.2291303547E-01       4    7    1         0.1204960340E+01      0.2728702436E+01
          0                 2           2             4    7     1      -0.2228824987E-02       4    7    1        -0.1204968055E+00      0.2728668194E+00
          0                 3           2             4    7     1       0.1517746071E-03       4    7    1         0.8434772737E-02      0.1910033327E-01
          0                 4           1             4    7     1      -0.6039254059E-05       4    7    1        -0.3449827218E-03      0.7811855680E-03

    ------------------------------------------------
       NWT REQUIRED            4 OUTER ITERATIONS 
       AND A TOTAL OF          7 INNER ITERATIONS.
    ------------------------------------------------

 NO OUTPUT CONTROL FOR STRESS PERIOD   13   TIME STEP   26
 
 SOLVING FOR HEAD 
                                                   Max.-Head-Change                         Max.-Flux-Residual
  Residual-Control   Outer-Iter.   Inner-Iter.     Column Row Layer    Maximum-Head-Change  Column Row Layer    Maximum-Flux-Residual          L2-NORM 
          0                 1           2             4    7     1       0.2263994903E-01       4    7    1         0.1190530584E+01      0.2701970275E+01
          0                 2           2             4    7     1      -0.2202260838E-02       4    7    1        -0.1190538107E+00      0.2701937188E+00
          0                 3           2             4    7     1       0.1499656899E-03       4    7    1         0.8333763239E-02      0.1891321871E-01
          0                 4           1             4    7     1      -0.5967275477E-05       4    7    1        -0.3408514222E-03      0.7735364590E-03

    ------------------------------------------------
       NWT REQUIRED            4 OUTER ITERATIONS 
       AND A TOTAL OF          7 INNER ITERATIONS.
    ------------------------------------------------

 NO OUTPUT CONTROL FOR STRESS PERIOD   13   TIME STEP   27
 
 SOLVING FOR HEAD 
                                                   Max.-Head-Change                         Max.-Flux-Residual
  Residual-Control   Outer-Iter.   Inner-Iter.     Column Row Layer    Maximum-Head-Change  Column Row Layer    Maximum-Flux-Residual          L2-NORM 
          0                 1           2             4    7     1       0.2237141038E-01       4    7    1         0.1176341979E+01      0.2675641367E+01
          0                 2           2             4    7     1      -0.2176139074E-02       4    7    1        -0.1176349315E+00      0.2675609911E+00
          0                 3           2             4    7     1       0.1481868971E-03       4    7    1         0.8234441822E-02      0.1872893665E-01
          0                 4           1             4    7     1      -0.5896495834E-05       4    7    1        -0.3367891684E-03      0.7659857213E-03

    ------------------------------------------------
       NWT REQUIRED            4 OUTER ITERATIONS 
       AND A TOTAL OF          7 INNER ITERATIONS.
    ------------------------------------------------

 NO OUTPUT CONTROL FOR STRESS PERIOD   13   TIME STEP   28
 
 SOLVING FOR HEAD 
                                                   Max.-Head-Change                         Max.-Flux-Residual
  Residual-Control   Outer-Iter.   Inner-Iter.     Column Row Layer    Maximum-Head-Change  Column Row Layer    Maximum-Flux-Residual          L2-NORM 
          0                 1           2             4    7     1       0.2210746005E-01       4    7    1         0.1162396519E+01      0.2649719712E+01
          0                 2           2             4    7     1      -0.2150463637E-02       4    7    1        -0.1162403675E+00      0.2649689454E+00
          0                 3           2             4    7     1       0.1464384983E-03       4    7    1         0.8136822491E-02      0.1854751539E-01
          0                 4           1             4    7     1      -0.5826925837E-05       4    7    1        -0.3327965537E-03      0.7585761475E-03

    ------------------------------------------------
       NWT REQUIRED            4 OUTER ITERATIONS 
       AND A TOTAL OF          7 INNER ITERATIONS.
    ------------------------------------------------

 NO OUTPUT CONTROL FOR STRESS PERIOD   13   TIME STEP   29
 
 SOLVING FOR HEAD 
                                                   Max.-Head-Change                         Max.-Flux-Residual
  Residual-Control   Outer-Iter.   Inner-Iter.     Column Row Layer    Maximum-Head-Change  Column Row Layer    Maximum-Flux-Residual          L2-NORM 
          0                 1           2             4    7     1       0.2184772257E-01       4    7    1         0.1148674256E+01      0.2624171371E+01
          0                 2           2             4    7     1      -0.2125198001E-02       4    7    1        -0.1148681234E+00      0.2624142008E+00
          0                 3           2             4    7     1       0.1447180047E-03       4    7    1         0.8040765527E-02      0.1836869184E-01
          0                 4           1             4    7     1      -0.5758465440E-05       4    7    1        -0.3288678167E-03      0.7512715750E-03

    ------------------------------------------------
       NWT REQUIRED            4 OUTER ITERATIONS 
       AND A TOTAL OF          7 INNER ITERATIONS.
    ------------------------------------------------

 NO OUTPUT CONTROL FOR STRESS PERIOD   13   TIME STEP   30



 STREAM LISTING     PERIOD     13   STEP       30

 LAYER ROW COL. STREAM  RCH.  FLOW INTO     FLOW TO   FLOW OUT OF   OVRLND.     DIRECT     STREAM       STREAM     STREAM     STREAM   STREAMBED  STREAMBED
                SEG.NO.  NO.  STRM. RCH.    AQUIFER    STRM. RCH.    RUNOFF     PRECIP       ET          HEAD       DEPTH      WIDTH   CONDCTNC.   GRADIENT

   1    1    1     1     1    2.3000E+01  2.3574E-01   2.2764E+01  0.000E+00  0.000E+00  0.000E+00  1.09420E+03  1.148E+00  1.263E+01  5.684E-02  1.383E+00
   1    2    2     1     2    2.2764E+01  3.6445E-01   2.2400E+01  0.000E+00  0.000E+00  0.000E+00  1.08920E+03  1.143E+00  1.257E+01  8.797E-02  1.381E+00
   1    3    3     1     3    2.2400E+01  3.1019E-01   2.2089E+01  0.000E+00  0.000E+00  0.000E+00  1.08356E+03  1.138E+00  1.250E+01  7.497E-02  1.379E+00
   1    3    4     1     4    2.2089E+01  2.8513E-01   2.1804E+01  0.000E+00  0.000E+00  0.000E+00  1.07854E+03  1.133E+00  1.243E+01  6.899E-02  1.378E+00
   1    4    5     2     1    1.9804E+01  3.1551E-01   1.9489E+01  0.000E+00  0.000E+00  0.000E+00  1.07298E+03  1.045E+00  1.200E+01  7.800E-02  1.348E+00
   1    5    6     2     2    1.9489E+01  2.4216E-01   1.9247E+01  0.000E+00  0.000E+00  0.000E+00  1.06755E+03  1.036E+00  1.200E+01  6.000E-02  1.345E+00
   1    6    6     2     3    1.9247E+01  2.4170E-01   1.9005E+01  0.000E+00  0.000E+00  0.000E+00  1.06282E+03  1.028E+00  1.200E+01  6.000E-02  1.343E+00
   1    7    6     2     4    1.9005E+01  2.4123E-01   1.8764E+01  0.000E+00  0.000E+00  0.000E+00  1.05810E+03  1.020E+00  1.200E+01  6.000E-02  1.340E+00
   1    8    6     2     5    1.8764E+01  2.4076E-01   1.8523E+01  0.000E+00  0.000E+00  0.000E+00  1.05337E+03  1.013E+00  1.200E+01  6.000E-02  1.338E+00
   1    3    5     3     1    2.0000E+00  2.8252E-01   1.7175E+00  0.000E+00  0.000E+00  0.000E+00  1.07555E+03  1.909E+00  9.636E+00  7.227E-02  1.955E+00
   1    3    6     3     2    1.7175E+00  2.4905E-01   1.4684E+00  0.000E+00  0.000E+00  0.000E+00  1.07264E+03  1.727E+00  8.909E+00  6.682E-02  1.864E+00
   1    3    7     3     3    1.4684E+00  1.9718E-01   1.2712E+00  0.000E+00  0.000E+00  0.000E+00  1.06987E+03  1.555E+00  8.218E+00  5.547E-02  1.777E+00
   1    4    8     3     4    1.2712E+00  2.2567E-01   1.0456E+00  0.000E+00  0.000E+00  0.000E+00  1.06682E+03  1.364E+00  7.455E+00  6.709E-02  1.682E+00
   1    5    8     3     5    1.0456E+00  1.5790E-01   8.8768E-01  0.000E+00  0.000E+00  0.000E+00  1.06362E+03  1.164E+00  6.655E+00  4.991E-02  1.582E+00
   1    6    8     3     6    8.8768E-01  5.5980E-02   8.3170E-01  0.000E+00  0.000E+00  0.000E+00  1.06158E+03  1.036E+00  6.145E+00  1.844E-02  1.518E+00
   1    5   10     4     1    1.0000E+01  9.0919E-02   9.9091E+00  0.000E+00  0.000E+00  0.000E+00  1.07836E+03  6.368E-01  1.000E+01  2.500E-02  1.212E+00
   1    5    9     4     2    9.9091E+00  1.8158E-01   9.7275E+00  0.000E+00  0.000E+00  0.000E+00  1.07154E+03  6.315E-01  1.000E+01  5.000E-02  1.211E+00
   1    6    8     4     3    9.7275E+00  1.2689E-01   9.6006E+00  0.000E+00  0.000E+00  0.000E+00  1.06381E+03  6.256E-01  1.000E+01  3.500E-02  1.209E+00
   1    6    8     5     1    1.0432E+01  2.2686E-01   1.0205E+01  0.000E+00  0.000E+00  0.000E+00  1.05868E+03  6.790E-01  1.542E+01  6.166E-02  1.226E+00
   1    7    7     5     2    1.0205E+01  2.7894E-01   9.9265E+00  0.000E+00  0.000E+00  0.000E+00  1.05417E+03  6.732E-01  1.519E+01  7.594E-02  1.224E+00
   1    8    7     5     3    9.9265E+00  1.9221E-01   9.7343E+00  0.000E+00  0.000E+00  0.000E+00  1.04992E+03  6.676E-01  1.497E+01  5.241E-02  1.223E+00
   1    8    6     5     4    9.7343E+00  1.3577E-01   9.5985E+00  0.000E+00  0.000E+00  0.000E+00  1.04691E+03  6.637E-01  1.482E+01  3.706E-02  1.221E+00
   1    9    6     6     1    2.8121E+01  2.5841E-01   2.7863E+01  0.000E+00  0.000E+00  0.000E+00  1.04403E+03  1.307E+00  1.200E+01  6.000E-02  1.436E+00
   1   10    7     6     2    2.7863E+01  2.5797E-01   2.7605E+01  0.000E+00  0.000E+00  0.000E+00  1.03948E+03  1.300E+00  1.200E+01  6.000E-02  1.433E+00
   1   11    7     6     3    2.7605E+01  2.5753E-01   2.7348E+01  0.000E+00  0.000E+00  0.000E+00  1.03493E+03  1.292E+00  1.200E+01  6.000E-02  1.431E+00
   1   12    7     6     4    2.7348E+01  2.5710E-01   2.7090E+01  0.000E+00  0.000E+00  0.000E+00  1.03038E+03  1.285E+00  1.200E+01  6.000E-02  1.428E+00
   1   13    7     6     5    2.7090E+01  3.6575E-04   2.7090E+01  0.000E+00  0.000E+00  0.000E+00  1.02719E+03  1.281E+00  1.200E+01  2.400E-02  5.080E-03
   1   14    9     7     1    1.5000E+02  1.3296E+00   1.4867E+02  0.000E+00  0.000E+00  0.000E+00  1.03987E+03  2.288E+00  5.529E+01  5.593E-01  7.924E-01
   1   13    8     7     2    1.4867E+02  1.8003E+00   1.4687E+02  0.000E+00  0.000E+00  0.000E+00  1.03478E+03  2.279E+00  5.526E+01  6.148E-01  9.761E-01
   1   13    7     7     3    1.4687E+02  1.4046E+00   1.4547E+02  0.000E+00  0.000E+00  0.000E+00  1.02969E+03  2.271E+00  5.522E+01  5.585E-01  8.383E-01
   1   13    6     8     1    1.7256E+02  8.7243E-01   1.7168E+02  0.000E+00  0.000E+00  0.000E+00  1.02484E+03  2.966E+00  4.301E+01  4.382E-01  6.636E-01
   1   13    5     8     2    1.7168E+02  1.3429E-01   1.7155E+02  0.000E+00  0.000E+00  0.000E+00  1.01859E+03  2.963E+00  4.296E+01  4.378E-01  1.023E-01
   1   13    4     8     3    1.7155E+02 -2.5600E+00   1.7411E+02  0.000E+00  0.000E+00  0.000E+00  1.01235E+03  2.971E+00  4.307E+01  4.389E+00 -1.944E-01
   1   13    3     8     4    1.7411E+02 -3.7263E+00   1.7784E+02  0.000E+00  0.000E+00  0.000E+00  1.00612E+03  2.991E+00  4.336E+01  4.419E+00 -2.811E-01
   1   13    2     8     5    1.7784E+02 -2.6051E+00   1.8044E+02  0.000E+00  0.000E+00  0.000E+00  9.99886E+02  3.011E+00  4.366E+01  4.449E+00 -1.952E-01
   1   13    1     8     6    1.8044E+02 -2.0003E+00   1.8244E+02  0.000E+00  0.000E+00  0.000E+00  9.94900E+02  3.025E+00  4.387E+01  2.682E+00 -2.486E-01





UNSATURATED ZONE PACKAGE VOLUMETRIC BUDGET FOR  TIME STEP    30 STRESS PERIOD   13
  ------------------------------------------------------------------------------



     CUMULATIVE VOLUMES      L**3       RATES FOR THIS TIME STEP      L**3/T
     ------------------                 ------------------------

           IN:                                      IN:
           ---                                      ---
        INFILTRATION =   539003131.8713          INFILTRATION =           4.4075

          OUT:                                     OUT:
          ----                                     ----
              UZF ET =   498092014.3527                UZF ET =           0.7250
        UZF RECHARGE =       73224.0000          UZF RECHARGE =       0.0000E+00

            IN - OUT =    40837893.5187              IN - OUT =           3.6825

          STORAGE:                                 STORAGE:
          --------                                 --------
      STORAGE CHANGE =    40838588.6013        STORAGE CHANGE =           3.6825

 PERCENT DISCREPANCY IS DIFFERENCE BETWEEN IN-OUT MINUS CHANGE IN STORAGE
 DIVIDED BY THE AVERAGE OF IN AND OUT TIMES 100

 PERCENT DISCREPANCY =          -0.00     PERCENT DISCREPANCY =           0.00






1
  VOLUMETRIC BUDGET FOR ENTIRE MODEL AT END OF TIME STEP   30, STRESS PERIOD  13
  ------------------------------------------------------------------------------

     CUMULATIVE VOLUMES      L**3       RATES FOR THIS TIME STEP      L**3/T
     ------------------                 ------------------------

           IN:                                      IN:
           ---                                      ---
               AG WELLS  =   399829152.0000                 AG WELLS  =           0.0000
      DIVERSION SEGMENTS =           0.0000        DIVERSION SEGMENTS =           0.0000
           GW IRRIGATION =           0.0000             GW IRRIGATION =           0.0000
           SW IRRIGATION =           0.0000             SW IRRIGATION =           0.0000
        SYSTEM LOSSES GW =           0.0000          SYSTEM LOSSES GW =           0.0000
        SYSTEM LOSSES SW =           0.0000          SYSTEM LOSSES SW =           0.0000

                TOTAL IN =   399829152.0000                  TOTAL IN =           0.0000

          OUT:                                     OUT:
          ----                                     ----
               AG WELLS  =           0.0000                 AG WELLS  =           0.0000
      DIVERSION SEGMENTS =           0.0000        DIVERSION SEGMENTS =           0.0000
           GW IRRIGATION =   399829152.0000             GW IRRIGATION =           0.0000
           SW IRRIGATION =           0.0000             SW IRRIGATION =           0.0000
        SYSTEM LOSSES GW =           0.0000          SYSTEM LOSSES GW =           0.0000
        SYSTEM LOSSES SW =           0.0000          SYSTEM LOSSES SW =           0.0000

               TOTAL OUT =   399829152.0000                 TOTAL OUT =           0.0000

                IN - OUT =           0.0000                  IN - OUT =           0.0000

     PERCENT DISCREPANCY =           0.00         PERCENT DISCREPANCY =           0.00



1
  VOLUMETRIC BUDGET FOR ENTIRE MODEL AT END OF TIME STEP   30, STRESS PERIOD  13
  ------------------------------------------------------------------------------

     CUMULATIVE VOLUMES      L**3       RATES FOR THIS TIME STEP      L**3/T
     ------------------                 ------------------------

           IN:                                      IN:
           ---                                      ---
             STORAGE     =   529321216.0000               STORAGE     =           7.6331
       CONSTANT HEAD     =           0.0000         CONSTANT HEAD     =           0.0000
     HEAD DEP BOUNDS     =     9032902.0000       HEAD DEP BOUNDS     =           0.2853
      STREAM LEAKAGE     =   394434112.0000        STREAM LEAKAGE     =          11.4508
        UZF RECHARGE     =       73223.9531          UZF RECHARGE     =           0.0000
               GW ET     =           0.0000                 GW ET     =           0.0000
     SURFACE LEAKAGE     =           0.0000       SURFACE LEAKAGE     =           0.0000
           AG WELLS      =           0.0000             AG WELLS      =           0.0000

                TOTAL IN =   932861440.0000                  TOTAL IN =          19.3693

          OUT:                                     OUT:
          ----                                     ----
             STORAGE     =   181269248.0000               STORAGE     =           8.1869
       CONSTANT HEAD     =           0.0000         CONSTANT HEAD     =           0.0000
     HEAD DEP BOUNDS     =     9325131.0000       HEAD DEP BOUNDS     =           0.2905
      STREAM LEAKAGE     =   328856096.0000        STREAM LEAKAGE     =          10.8918
        UZF RECHARGE     =           0.0000          UZF RECHARGE     =           0.0000
               GW ET     =    13586479.0000                 GW ET     =           0.0000
     SURFACE LEAKAGE     =           0.0000       SURFACE LEAKAGE     =           0.0000
           AG WELLS      =   399829152.0000             AG WELLS      =           0.0000

               TOTAL OUT =   932866112.0000                 TOTAL OUT =          19.3693

                IN - OUT =       -4672.0000                  IN - OUT =       5.7220E-06

     PERCENT DISCREPANCY =          -0.00         PERCENT DISCREPANCY =           0.00






         TIME SUMMARY AT END OF TIME STEP   30 IN STRESS PERIOD   13
                    SECONDS     MINUTES      HOURS       DAYS        YEARS
                    -----------------------------------------------------------
   TIME STEP LENGTH  87667.      1461.1      24.352      1.0147     2.77799E-03
 STRESS PERIOD TIME 2.63000E+06  43833.      730.56      30.440     8.33397E-02
         TOTAL TIME 3.16463E+07 5.27439E+05  8790.6      366.28      1.0028    
1
1
                            STRESS PERIOD NO.   14, LENGTH =   2630000.    
                            -----------------------------------------------

                              NUMBER OF TIME STEPS =    30

                               MULTIPLIER FOR DELT =     1.000

                            INITIAL TIME STEP SIZE =   87666.66    

 REUSING NON-PARAMETER GHB CELLS FROM LAST STRESS PERIOD

      2 GHB CELLS

 REUSING STREAM SEGMENT DATA FROM LAST STRESS PERIOD



            AREAL INFILTRATION RATE
 READING ON UNIT   19 WITH FORMAT: (10F4.0)            

            1           2           3           4           5           6           7           8           9          10
 ........................................................................................................................
   1   1.2000E-09   0.000       0.000       0.000       0.000       0.000       0.000       0.000       0.000       0.000    
   2   2.1000E-09  2.0000E-09  8.0000E-10  8.5000E-09   0.000       0.000       0.000       0.000       0.000       0.000    
   3   5.0000E-10  1.1000E-09  8.8000E-09  5.5000E-09   0.000       0.000       0.000       0.000       0.000       0.000    
   4   8.5000E-09  1.1000E-09  1.1000E-09  1.1000E-09  2.0000E-09   0.000       0.000       0.000       0.000       0.000    
   5   8.5000E-09  1.1000E-09  1.1000E-09  1.1000E-09  1.1000E-09   0.000       0.000       0.000       0.000       0.000    
   6   8.5000E-09  5.2000E-09  2.1000E-09  1.1000E-09  1.5000E-09   0.000       0.000       0.000       0.000       0.000    
   7   8.5000E-09  5.2000E-09  2.1000E-09  1.2000E-09  2.0000E-09   0.000       0.000       0.000       0.000       0.000    
   8   5.0000E-10  5.2000E-09  2.1000E-09  1.2000E-09  5.0000E-09   0.000       0.000       0.000       0.000       0.000    
   9   5.0000E-10  5.2000E-09  2.1000E-09  1.2000E-09  5.0000E-09   0.000       0.000       0.000       0.000       0.000    
  10   5.0000E-10  5.2000E-09  2.1000E-09  1.2000E-09  5.8000E-09   0.000       0.000       0.000       0.000       0.000    
  11   1.0000E-10  1.1000E-09  1.1000E-09  1.2000E-09  5.0000E-09   0.000       0.000       0.000       0.000       0.000    
  12   1.1000E-09  1.1000E-09  1.1000E-09  1.1000E-09  2.0000E-09   0.000       0.000       0.000       0.000       0.000    
  13   1.1000E-09  2.2000E-09  2.2000E-09  2.1000E-09  1.0000E-09   0.000       0.000       0.000       0.000       0.000    
  14   2.0000E-10  5.5000E-09  5.5000E-09  5.2000E-09  1.0000E-09   0.000       0.000       0.000       0.000       0.000    
  15    0.000      8.8000E-09  8.8000E-09   0.000       0.000       0.000       0.000       0.000       0.000       0.000    

                  ET RATE =  5.000000E-10

 USING ET EXTINCTION DEPTH FROM PREVIOUS STRESS PERIOD. CURRENT PERIOD IS:      14

 USING EXTINCTION WATER CONTENT FROM PREVIOUS STRESS PERIOD. CURRENT PERIOD IS:      14

 USING AIR ENTRY PRESSURE FROM PREVIOUS STRESS PERIOD. CURRENT PERIOD IS:      14

 USING ROOT PRESSURE HEAD FROM PREVIOUS STRESS PERIOD. CURRENT PERIOD IS:      14

 USING ROOT ACTIVITY FROM PREVIOUS STRESS PERIOD. CURRENT PERIOD IS:      14

 PROCESSING AG STRESS PERIOD DATA

 READING AG STRESS PERIOD DATA

 READING IRRIGATION WELL

 END PROCESSING AG STRESS PERIOD DATA OPTIONS
 
 SOLVING FOR HEAD 
                                                   Max.-Head-Change                         Max.-Flux-Residual
  Residual-Control   Outer-Iter.   Inner-Iter.     Column Row Layer    Maximum-Head-Change  Column Row Layer    Maximum-Flux-Residual          L2-NORM 
          0                 1           2             4    7     1       0.2159223351E-01       4    7    1         0.1135177771E+01      0.2602487750E+01
          0                 2           2             4    7     1      -0.2100345629E-02       4    7    1        -0.1135184578E+00      0.2601889888E+00
          0                 3           2             4    7     1       0.1430256526E-03       4    7    1         0.7946289049E-02      0.1821206762E-01
          0                 4           1             4    7     1      -0.5691125349E-05       4    7    1        -0.3250037178E-03      0.7447611000E-03

    ------------------------------------------------
       NWT REQUIRED            4 OUTER ITERATIONS 
       AND A TOTAL OF          7 INNER ITERATIONS.
    ------------------------------------------------

 NO OUTPUT CONTROL FOR STRESS PERIOD   14   TIME STEP    1
 
 SOLVING FOR HEAD 
                                                   Max.-Head-Change                         Max.-Flux-Residual
  Residual-Control   Outer-Iter.   Inner-Iter.     Column Row Layer    Maximum-Head-Change  Column Row Layer    Maximum-Flux-Residual          L2-NORM 
          0                 1           2             4    7     1       0.2134101621E-01       4    7    1         0.1121908911E+01      0.2586969132E+01
          0                 2           2             4    7     1      -0.2075908790E-02       4    7    1        -0.1121915552E+00      0.2586559280E+00
          0                 3           2             4    7     1       0.1413615965E-03       4    7    1         0.7853405976E-02      0.1810221983E-01
          0                 4           1             4    7     1      -0.5624910976E-05       4    7    1        -0.3212047884E-03      0.7401847891E-03

    ------------------------------------------------
       NWT REQUIRED            4 OUTER ITERATIONS 
       AND A TOTAL OF          7 INNER ITERATIONS.
    ------------------------------------------------

 NO OUTPUT CONTROL FOR STRESS PERIOD   14   TIME STEP    2
 
 SOLVING FOR HEAD 
                                                   Max.-Head-Change                         Max.-Flux-Residual
  Residual-Control   Outer-Iter.   Inner-Iter.     Column Row Layer    Maximum-Head-Change  Column Row Layer    Maximum-Flux-Residual          L2-NORM 
          0                 1           2             4    7     1       0.2109384049E-01       4    7    1         0.1108854184E+01      0.2561793529E+01
          0                 2           2             4    7     1      -0.2051865092E-02       4    7    1        -0.1108860663E+00      0.2561426027E+00
          0                 3           2             4    7     1       0.1397243119E-03       4    7    1         0.7762021848E-02      0.1792658801E-01
          0                 4           1             4    7     1      -0.5559761994E-05       4    7    1        -0.3174671722E-03      0.7330162695E-03

    ------------------------------------------------
       NWT REQUIRED            4 OUTER ITERATIONS 
       AND A TOTAL OF          7 INNER ITERATIONS.
    ------------------------------------------------

 NO OUTPUT CONTROL FOR STRESS PERIOD   14   TIME STEP    3
 
 SOLVING FOR HEAD 
                                                   Max.-Head-Change                         Max.-Flux-Residual
  Residual-Control   Outer-Iter.   Inner-Iter.     Column Row Layer    Maximum-Head-Change  Column Row Layer    Maximum-Flux-Residual          L2-NORM 
          0                 1           2             4    7     1       0.2085062217E-01       4    7    1         0.1096009004E+01      0.2537056293E+01
          0                 2           2             4    7     1      -0.2028206350E-02       4    7    1        -0.1096015327E+00      0.2536727997E+00
          0                 3           2             4    7     1       0.1381132418E-03       4    7    1         0.7672104626E-02      0.1775420776E-01
          0                 4           1             4    7     1      -0.5495655607E-05       4    7    1        -0.3137895426E-03      0.7260428456E-03

    ------------------------------------------------
       NWT REQUIRED            4 OUTER ITERATIONS 
       AND A TOTAL OF          7 INNER ITERATIONS.
    ------------------------------------------------

 NO OUTPUT CONTROL FOR STRESS PERIOD   14   TIME STEP    4
 
 SOLVING FOR HEAD 
                                                   Max.-Head-Change                         Max.-Flux-Residual
  Residual-Control   Outer-Iter.   Inner-Iter.     Column Row Layer    Maximum-Head-Change  Column Row Layer    Maximum-Flux-Residual          L2-NORM 
          0                 1           2             4    7     1       0.2061127614E-01       4    7    1         0.1083369010E+01      0.2512753885E+01
          0                 2           2             4    7     1      -0.2004924281E-02       4    7    1        -0.1083375179E+00      0.2512459019E+00
          0                 3           2             4    7     1       0.1365278211E-03       4    7    1         0.7583623697E-02      0.1758454048E-01
          0                 4           1             4    7     1      -0.5432570172E-05       4    7    1        -0.3101706573E-03      0.7191032032E-03

    ------------------------------------------------
       NWT REQUIRED            4 OUTER ITERATIONS 
       AND A TOTAL OF          7 INNER ITERATIONS.
    ------------------------------------------------

 NO OUTPUT CONTROL FOR STRESS PERIOD   14   TIME STEP    5
 
 SOLVING FOR HEAD 
                                                   Max.-Head-Change                         Max.-Flux-Residual
  Residual-Control   Outer-Iter.   Inner-Iter.     Column Row Layer    Maximum-Head-Change  Column Row Layer    Maximum-Flux-Residual          L2-NORM 
          0                 1           2             4    7     1       0.2037585913E-01       4    7    1         0.1070937140E+01      0.2488864426E+01
          0                 2           2             4    7     1      -0.1982024405E-02       4    7    1        -0.1070943160E+00      0.2488598940E+00
          0                 3           2             4    7     1       0.1349684269E-03       4    7    1         0.7496599668E-02      0.1741773905E-01
          0                 4           1             4    7     1      -0.5370520425E-05       4    7    1        -0.3066113782E-03      0.7122143759E-03

    ------------------------------------------------
       NWT REQUIRED            4 OUTER ITERATIONS 
       AND A TOTAL OF          7 INNER ITERATIONS.
    ------------------------------------------------

 NO OUTPUT CONTROL FOR STRESS PERIOD   14   TIME STEP    6
 
 SOLVING FOR HEAD 
                                                   Max.-Head-Change                         Max.-Flux-Residual
  Residual-Control   Outer-Iter.   Inner-Iter.     Column Row Layer    Maximum-Head-Change  Column Row Layer    Maximum-Flux-Residual          L2-NORM 
          0                 1           2             4    7     1       0.2014428026E-01       4    7    1         0.1058708983E+01      0.2465366311E+01
          0                 2           2             4    7     1      -0.1959497881E-02       4    7    1        -0.1058714859E+00      0.2465127350E+00
          0                 3           2             4    7     1       0.1334344562E-03       4    7    1         0.7411001654E-02      0.1725375964E-01
          0                 4           1             4    7     1      -0.5309482304E-05       4    7    1        -0.3031104120E-03      0.7056059739E-03

    ------------------------------------------------
       NWT REQUIRED            4 OUTER ITERATIONS 
       AND A TOTAL OF          7 INNER ITERATIONS.
    ------------------------------------------------

 NO OUTPUT CONTROL FOR STRESS PERIOD   14   TIME STEP    7
 
 SOLVING FOR HEAD 
                                                   Max.-Head-Change                         Max.-Flux-Residual
  Residual-Control   Outer-Iter.   Inner-Iter.     Column Row Layer    Maximum-Head-Change  Column Row Layer    Maximum-Flux-Residual          L2-NORM 
          0                 1           2             4    7     1       0.1991632690E-01       4    7    1         0.1046672474E+01      0.2442244832E+01
          0                 2           2             4    7     1      -0.1937324027E-02       4    7    1        -0.1046678209E+00      0.2442028452E+00
          0                 3           2             4    7     1       0.1319245008E-03       4    7    1         0.7326745193E-02      0.1709224892E-01
          0                 4           1             4    7     1      -0.5249399743E-05       4    7    1        -0.2996643195E-03      0.6989204744E-03

    ------------------------------------------------
       NWT REQUIRED            4 OUTER ITERATIONS 
       AND A TOTAL OF          7 INNER ITERATIONS.
    ------------------------------------------------

 NO OUTPUT CONTROL FOR STRESS PERIOD   14   TIME STEP    8
 
 SOLVING FOR HEAD 
                                                   Max.-Head-Change                         Max.-Flux-Residual
  Residual-Control   Outer-Iter.   Inner-Iter.     Column Row Layer    Maximum-Head-Change  Column Row Layer    Maximum-Flux-Residual          L2-NORM 
          0                 1           2             4    7     1       0.1969205612E-01       4    7    1         0.1034831295E+01      0.2419497823E+01
          0                 2           2             4    7     1      -0.1915508392E-02       4    7    1        -0.1034836893E+00      0.2419301912E+00
          0                 3           2             4    7     1       0.1304389390E-03       4    7    1         0.7243856079E-02      0.1693327675E-01
          0                 4           1             4    7     1      -0.5190287821E-05       4    7    1        -0.2962741501E-03      0.6924691610E-03

    ------------------------------------------------
       NWT REQUIRED            4 OUTER ITERATIONS 
       AND A TOTAL OF          7 INNER ITERATIONS.
    ------------------------------------------------

 NO OUTPUT CONTROL FOR STRESS PERIOD   14   TIME STEP    9
 
 SOLVING FOR HEAD 
                                                   Max.-Head-Change                         Max.-Flux-Residual
  Residual-Control   Outer-Iter.   Inner-Iter.     Column Row Layer    Maximum-Head-Change  Column Row Layer    Maximum-Flux-Residual          L2-NORM 
          0                 1           2             4    7     1       0.1947125431E-01       4    7    1         0.1023173698E+01      0.2397091925E+01
          0                 2           2             4    7     1      -0.1894030199E-02       4    7    1        -0.1023179163E+00      0.2396912757E+00
          0                 3           2             4    7     1       0.1289763555E-03       4    7    1         0.7162252046E-02      0.1677673955E-01
          0                 4           1             4    7     1      -0.5132090359E-05       4    7    1        -0.2929365439E-03      0.6860706486E-03

    ------------------------------------------------
       NWT REQUIRED            4 OUTER ITERATIONS 
       AND A TOTAL OF          7 INNER ITERATIONS.
    ------------------------------------------------

 NO OUTPUT CONTROL FOR STRESS PERIOD   14   TIME STEP   10
 
 SOLVING FOR HEAD 
                                                   Max.-Head-Change                         Max.-Flux-Residual
  Residual-Control   Outer-Iter.   Inner-Iter.     Column Row Layer    Maximum-Head-Change  Column Row Layer    Maximum-Flux-Residual          L2-NORM 
          0                 1           2             4    7     1       0.1925398510E-01       4    7    1         0.1011703316E+01      0.2375037650E+01
          0                 2           2             4    7     1      -0.1872895638E-02       4    7    1        -0.1011708650E+00      0.2374874546E+00
          0                 3           2             4    7     1       0.1275371722E-03       4    7    1         0.7081958558E-02      0.1662257874E-01
          0                 4           1             4    7     1      -0.5074823818E-05       4    7    1        -0.2896525295E-03      0.6797429324E-03

    ------------------------------------------------
       NWT REQUIRED            4 OUTER ITERATIONS 
       AND A TOTAL OF          7 INNER ITERATIONS.
    ------------------------------------------------

 NO OUTPUT CONTROL FOR STRESS PERIOD   14   TIME STEP   11
 
 SOLVING FOR HEAD 
                                                   Max.-Head-Change                         Max.-Flux-Residual
  Residual-Control   Outer-Iter.   Inner-Iter.     Column Row Layer    Maximum-Head-Change  Column Row Layer    Maximum-Flux-Residual          L2-NORM 
          0                 1           2             4    7     1       0.1904017230E-01       4    7    1         0.1000416093E+01      0.2353316011E+01
          0                 2           2             4    7     1      -0.1852097863E-02       4    7    1        -0.1000421301E+00      0.2353527799E+00
          0                 3           2             4    7     1       0.1261209227E-03       4    7    1         0.7002947201E-02      0.1647333266E-01
          0                 4           1             4    7     1      -0.5018470009E-05       4    7    1        -0.2864209619E-03      0.6736744018E-03

    ------------------------------------------------
       NWT REQUIRED            4 OUTER ITERATIONS 
       AND A TOTAL OF          7 INNER ITERATIONS.
    ------------------------------------------------

 NO OUTPUT CONTROL FOR STRESS PERIOD   14   TIME STEP   12
 
 SOLVING FOR HEAD 
                                                   Max.-Head-Change                         Max.-Flux-Residual
  Residual-Control   Outer-Iter.   Inner-Iter.     Column Row Layer    Maximum-Head-Change  Column Row Layer    Maximum-Flux-Residual          L2-NORM 
          0                 1           2             4    7     1       0.1882960482E-01       4    7    1         0.9893006942E+00      0.2331879457E+01
          0                 2           2             4    7     1      -0.1831614639E-02       4    7    1        -0.9893057796E-01      0.2331743373E+00
          0                 3           1             4    7     1       0.1247260954E-03       4    7    1         0.6925138647E-02      0.1632101309E-01
          0                 4           1             4    7     1      -0.4962970907E-05       4    7    1        -0.2832385849E-03      0.6675658213E-03

    ------------------------------------------------
       NWT REQUIRED            4 OUTER ITERATIONS 
       AND A TOTAL OF          6 INNER ITERATIONS.
    ------------------------------------------------

 NO OUTPUT CONTROL FOR STRESS PERIOD   14   TIME STEP   13
 
 SOLVING FOR HEAD 
                                                   Max.-Head-Change                         Max.-Flux-Residual
  Residual-Control   Outer-Iter.   Inner-Iter.     Column Row Layer    Maximum-Head-Change  Column Row Layer    Maximum-Flux-Residual          L2-NORM 
          0                 1           2             4    7     1       0.1862248720E-01       4    7    1         0.9783683305E+00      0.2310745968E+01
          0                 2           2             4    7     1      -0.1811467565E-02       4    7    1        -0.9783732964E-01      0.2310621369E+00
          0                 3           1             4    7     1       0.1233541558E-03       4    7    1         0.6848611325E-02      0.1617328346E-01
          0                 4           1             4    7     1      -0.4908380047E-05       4    7    1        -0.2801086216E-03      0.6614350073E-03

    ------------------------------------------------
       NWT REQUIRED            4 OUTER ITERATIONS 
       AND A TOTAL OF          6 INNER ITERATIONS.
    ------------------------------------------------

 NO OUTPUT CONTROL FOR STRESS PERIOD   14   TIME STEP   14
 
 SOLVING FOR HEAD 
                                                   Max.-Head-Change                         Max.-Flux-Residual
  Residual-Control   Outer-Iter.   Inner-Iter.     Column Row Layer    Maximum-Head-Change  Column Row Layer    Maximum-Flux-Residual          L2-NORM 
          0                 1           2             4    7     1       0.1841847109E-01       4    7    1         0.9676000957E+00      0.2289925747E+01
          0                 2           2             4    7     1      -0.1791622189E-02       4    7    1        -0.9676049450E-01      0.2289809919E+00
          0                 3           1             4    7     1       0.1220027613E-03       4    7    1         0.6773232965E-02      0.1602758272E-01
          0                 4           1             4    7     1      -0.4854606708E-05       4    7    1        -0.2770256353E-03      0.6554696915E-03

    ------------------------------------------------
       NWT REQUIRED            4 OUTER ITERATIONS 
       AND A TOTAL OF          6 INNER ITERATIONS.
    ------------------------------------------------

 NO OUTPUT CONTROL FOR STRESS PERIOD   14   TIME STEP   15
 
 SOLVING FOR HEAD 
                                                   Max.-Head-Change                         Max.-Flux-Residual
  Residual-Control   Outer-Iter.   Inner-Iter.     Column Row Layer    Maximum-Head-Change  Column Row Layer    Maximum-Flux-Residual          L2-NORM 
          0                 1           2             4    7     1       0.1821762985E-01       4    7    1         0.9570000246E+00      0.2269399227E+01
          0                 2           2             4    7     1      -0.1772085645E-02       4    7    1        -0.9570047605E-01      0.2269291883E+00
          0                 3           1             4    7     1       0.1206723962E-03       4    7    1         0.6699031728E-02      0.1588402105E-01
          0                 4           1             4    7     1      -0.4801670001E-05       4    7    1        -0.2739907868E-03      0.6495802123E-03

    ------------------------------------------------
       NWT REQUIRED            4 OUTER ITERATIONS 
       AND A TOTAL OF          6 INNER ITERATIONS.
    ------------------------------------------------

 NO OUTPUT CONTROL FOR STRESS PERIOD   14   TIME STEP   16
 
 SOLVING FOR HEAD 
                                                   Max.-Head-Change                         Max.-Flux-Residual
  Residual-Control   Outer-Iter.   Inner-Iter.     Column Row Layer    Maximum-Head-Change  Column Row Layer    Maximum-Flux-Residual          L2-NORM 
          0                 1           2             4    7     1       0.1802002956E-01       4    7    1         0.9465719220E+00      0.2249163967E+01
          0                 2           2             4    7     1      -0.1752864362E-02       4    7    1        -0.9465765478E-01      0.2249064630E+00
          0                 3           1             4    7     1       0.1193634999E-03       4    7    1         0.6626034313E-02      0.1574249859E-01
          0                 4           1             4    7     1      -0.4749588117E-05       4    7    1        -0.2710052081E-03      0.6438276054E-03

    ------------------------------------------------
       NWT REQUIRED            4 OUTER ITERATIONS 
       AND A TOTAL OF          6 INNER ITERATIONS.
    ------------------------------------------------

 NO OUTPUT CONTROL FOR STRESS PERIOD   14   TIME STEP   17
 
 SOLVING FOR HEAD 
                                                   Max.-Head-Change                         Max.-Flux-Residual
  Residual-Control   Outer-Iter.   Inner-Iter.     Column Row Layer    Maximum-Head-Change  Column Row Layer    Maximum-Flux-Residual          L2-NORM 
          0                 1           2             4    7     1       0.1782532742E-01       4    7    1         0.9362971447E+00      0.2229216387E+01
          0                 2           2             4    7     1      -0.1733924994E-02       4    7    1        -0.9363016631E-01      0.2229124064E+00
          0                 3           1             4    7     1       0.1180738011E-03       4    7    1         0.6554110213E-02      0.1560303276E-01
          0                 4           1             4    7     1      -0.4698269989E-05       4    7    1        -0.2680635043E-03      0.6381167356E-03

    ------------------------------------------------
       NWT REQUIRED            4 OUTER ITERATIONS 
       AND A TOTAL OF          6 INNER ITERATIONS.
    ------------------------------------------------

 NO OUTPUT CONTROL FOR STRESS PERIOD   14   TIME STEP   18
 
 SOLVING FOR HEAD 
                                                   Max.-Head-Change                         Max.-Flux-Residual
  Residual-Control   Outer-Iter.   Inner-Iter.     Column Row Layer    Maximum-Head-Change  Column Row Layer    Maximum-Flux-Residual          L2-NORM 
          0                 1           2             4    7     1       0.1763373739E-01       4    7    1         0.9261873451E+00      0.2209546788E+01
          0                 2           2             4    7     1      -0.1715288354E-02       4    7    1        -0.9261917591E-01      0.2209461680E+00
          0                 3           1             4    7     1       0.1168047162E-03       4    7    1         0.6483340937E-02      0.1546551689E-01
          0                 4           1             4    7     1      -0.4647771455E-05       4    7    1        -0.2651690320E-03      0.6325847943E-03

    ------------------------------------------------
       NWT REQUIRED            4 OUTER ITERATIONS 
       AND A TOTAL OF          6 INNER ITERATIONS.
    ------------------------------------------------

 NO OUTPUT CONTROL FOR STRESS PERIOD   14   TIME STEP   19
 
 SOLVING FOR HEAD 
                                                   Max.-Head-Change                         Max.-Flux-Residual
  Residual-Control   Outer-Iter.   Inner-Iter.     Column Row Layer    Maximum-Head-Change  Column Row Layer    Maximum-Flux-Residual          L2-NORM 
          0                 1           2             4    7     1       0.1744491712E-01       4    7    1         0.9162241897E+00      0.2190143319E+01
          0                 2           2             4    7     1      -0.1696921139E-02       4    7    1        -0.9162285019E-01      0.2190062843E+00
          0                 3           1             4    7     1       0.1155539784E-03       4    7    1         0.6413598192E-02      0.1532968635E-01
          0                 4           1             4    7     1      -0.4598003750E-05       4    7    1        -0.2623165606E-03      0.6269363688E-03

    ------------------------------------------------
       NWT REQUIRED            4 OUTER ITERATIONS 
       AND A TOTAL OF          6 INNER ITERATIONS.
    ------------------------------------------------

 NO OUTPUT CONTROL FOR STRESS PERIOD   14   TIME STEP   20
 
 SOLVING FOR HEAD 
                                                   Max.-Head-Change                         Max.-Flux-Residual
  Residual-Control   Outer-Iter.   Inner-Iter.     Column Row Layer    Maximum-Head-Change  Column Row Layer    Maximum-Flux-Residual          L2-NORM 
          0                 1           2             4    7     1       0.1725908783E-01       4    7    1         0.9064193558E+00      0.2171019121E+01
          0                 2           2             4    7     1      -0.1678844870E-02       4    7    1        -0.9064235690E-01      0.2170943401E+00
          0                 3           1             4    7     1       0.1143230531E-03       4    7    1         0.6344963743E-02      0.1519560560E-01
          0                 4           1             4    7     1      -0.4549023979E-05       4    7    1        -0.2595094054E-03      0.6212184519E-03

    ------------------------------------------------
       NWT REQUIRED            4 OUTER ITERATIONS 
       AND A TOTAL OF          6 INNER ITERATIONS.
    ------------------------------------------------

 NO OUTPUT CONTROL FOR STRESS PERIOD   14   TIME STEP   21
 
 SOLVING FOR HEAD 
                                                   Max.-Head-Change                         Max.-Flux-Residual
  Residual-Control   Outer-Iter.   Inner-Iter.     Column Row Layer    Maximum-Head-Change  Column Row Layer    Maximum-Flux-Residual          L2-NORM 
          0                 1           2             4    7     1       0.1707604565E-01       4    7    1         0.8967622427E+00      0.2152145147E+01
          0                 2           2             4    7     1      -0.1661039714E-02       4    7    1        -0.8967663594E-01      0.2152074226E+00
          0                 3           1             4    7     1       0.1131105892E-03       4    7    1         0.6277363332E-02      0.1506385348E-01
          0                 4           1             4    7     1      -0.4500778837E-05       4    7    1        -0.2567445399E-03      0.6160957136E-03

    ------------------------------------------------
       NWT REQUIRED            4 OUTER ITERATIONS 
       AND A TOTAL OF          6 INNER ITERATIONS.
    ------------------------------------------------

 NO OUTPUT CONTROL FOR STRESS PERIOD   14   TIME STEP   22
 
 SOLVING FOR HEAD 
                                                   Max.-Head-Change                         Max.-Flux-Residual
  Residual-Control   Outer-Iter.   Inner-Iter.     Column Row Layer    Maximum-Head-Change  Column Row Layer    Maximum-Flux-Residual          L2-NORM 
          0                 1           2             4    7     1       0.1689586753E-01       4    7    1         0.8872569947E+00      0.2133533077E+01
          0                 2           2             4    7     1      -0.1643513157E-02       4    7    1        -0.8872610176E-01      0.2133466086E+00
          0                 3           1             4    7     1       0.1119170971E-03       4    7    1         0.6210826009E-02      0.1493366059E-01
          0                 4           1             4    7     1      -0.4453288587E-05       4    7    1        -0.2540231515E-03      0.6107655522E-03

    ------------------------------------------------
       NWT REQUIRED            4 OUTER ITERATIONS 
       AND A TOTAL OF          6 INNER ITERATIONS.
    ------------------------------------------------

 NO OUTPUT CONTROL FOR STRESS PERIOD   14   TIME STEP   23
 
 SOLVING FOR HEAD 
                                                   Max.-Head-Change                         Max.-Flux-Residual
  Residual-Control   Outer-Iter.   Inner-Iter.     Column Row Layer    Maximum-Head-Change  Column Row Layer    Maximum-Flux-Residual          L2-NORM 
          0                 1           2             4    7     1       0.1671822570E-01       4    7    1         0.8778855271E+00      0.2115173149E+01
          0                 2           2             4    7     1      -0.1626233316E-02       4    7    1        -0.8778894584E-01      0.2115110765E+00
          0                 3           1             4    7     1       0.1107404052E-03       4    7    1         0.6145225155E-02      0.1480519598E-01
          0                 4           1             4    7     1      -0.4406466652E-05       4    7    1        -0.2513400682E-03      0.6054693846E-03

    ------------------------------------------------
       NWT REQUIRED            4 OUTER ITERATIONS 
       AND A TOTAL OF          6 INNER ITERATIONS.
    ------------------------------------------------

 NO OUTPUT CONTROL FOR STRESS PERIOD   14   TIME STEP   24
 
 SOLVING FOR HEAD 
                                                   Max.-Head-Change                         Max.-Flux-Residual
  Residual-Control   Outer-Iter.   Inner-Iter.     Column Row Layer    Maximum-Head-Change  Column Row Layer    Maximum-Flux-Residual          L2-NORM 
          0                 1           2             4    7     1       0.1654333704E-01       4    7    1         0.8686602792E+00      0.2097053513E+01
          0                 2           2             4    7     1      -0.1609221285E-02       4    7    1        -0.8686641213E-01      0.2096994079E+00
          0                 3           1             4    7     1       0.1095819499E-03       4    7    1         0.6080647832E-02      0.1467840117E-01
          0                 4           1             4    7     1      -0.4360370712E-05       4    7    1        -0.2486988474E-03      0.6003087015E-03

    ------------------------------------------------
       NWT REQUIRED            4 OUTER ITERATIONS 
       AND A TOTAL OF          6 INNER ITERATIONS.
    ------------------------------------------------

 NO OUTPUT CONTROL FOR STRESS PERIOD   14   TIME STEP   25
 
 SOLVING FOR HEAD 
                                                   Max.-Head-Change                         Max.-Flux-Residual
  Residual-Control   Outer-Iter.   Inner-Iter.     Column Row Layer    Maximum-Head-Change  Column Row Layer    Maximum-Flux-Residual          L2-NORM 
          0                 1           2             4    7     1       0.1637114442E-01       4    7    1         0.8595777787E+00      0.2079185318E+01
          0                 2           2             4    7     1      -0.1592471511E-02       4    7    1        -0.8595815340E-01      0.2079128731E+00
          0                 3           1             4    7     1       0.1084413538E-03       4    7    1         0.6017069779E-02      0.1455343697E-01
          0                 4           1             4    7     1      -0.4314985340E-05       4    7    1        -0.2460985108E-03      0.5952648356E-03

    ------------------------------------------------
       NWT REQUIRED            4 OUTER ITERATIONS 
       AND A TOTAL OF          6 INNER ITERATIONS.
    ------------------------------------------------

 NO OUTPUT CONTROL FOR STRESS PERIOD   14   TIME STEP   26
 
 SOLVING FOR HEAD 
                                                   Max.-Head-Change                         Max.-Flux-Residual
  Residual-Control   Outer-Iter.   Inner-Iter.     Column Row Layer    Maximum-Head-Change  Column Row Layer    Maximum-Flux-Residual          L2-NORM 
          0                 1           2             4    7     1       0.1620131757E-01       4    7    1         0.8506203465E+00      0.2061537267E+01
          0                 2           2             4    7     1      -0.1575951863E-02       4    7    1        -0.8506240172E-01      0.2061483621E+00
          0                 3           1             4    7     1       0.1073164285E-03       4    7    1         0.5954367215E-02      0.1442988527E-01
          0                 4           1             4    7     1      -0.4270223729E-05       4    7    1        -0.2435339861E-03      0.5901315703E-03

    ------------------------------------------------
       NWT REQUIRED            4 OUTER ITERATIONS 
       AND A TOTAL OF          6 INNER ITERATIONS.
    ------------------------------------------------

 NO OUTPUT CONTROL FOR STRESS PERIOD   14   TIME STEP   27
 
 SOLVING FOR HEAD 
                                                   Max.-Head-Change                         Max.-Flux-Residual
  Residual-Control   Outer-Iter.   Inner-Iter.     Column Row Layer    Maximum-Head-Change  Column Row Layer    Maximum-Flux-Residual          L2-NORM 
          0                 1           2             4    7     1       0.1603421782E-01       4    7    1         0.8418076524E+00      0.2044129720E+01
          0                 2           2             4    7     1      -0.1559697493E-02       4    7    1        -0.8418112410E-01      0.2044078642E+00
          0                 3           1             4    7     1       0.1062095670E-03       4    7    1         0.5892677832E-02      0.1430806159E-01
          0                 4           1             4    7     1      -0.4226180399E-05       4    7    1        -0.2410108680E-03      0.5851537402E-03

    ------------------------------------------------
       NWT REQUIRED            4 OUTER ITERATIONS 
       AND A TOTAL OF          6 INNER ITERATIONS.
    ------------------------------------------------

 NO OUTPUT CONTROL FOR STRESS PERIOD   14   TIME STEP   28
 
 SOLVING FOR HEAD 
                                                   Max.-Head-Change                         Max.-Flux-Residual
  Residual-Control   Outer-Iter.   Inner-Iter.     Column Row Layer    Maximum-Head-Change  Column Row Layer    Maximum-Flux-Residual          L2-NORM 
          0                 1           2             4    7     1       0.1586951571E-01       4    7    1         0.8331216364E+00      0.2026951565E+01
          0                 2           2             4    7     1      -0.1543676349E-02       4    7    1        -0.8331251446E-01      0.2026902459E+00
          0                 3           1             4    7     1       0.1051185879E-03       4    7    1         0.5831875216E-02      0.1418785937E-01
          0                 4           1             4    7     1      -0.4182769350E-05       4    7    1        -0.2385240462E-03      0.5802538398E-03

    ------------------------------------------------
       NWT REQUIRED            4 OUTER ITERATIONS 
       AND A TOTAL OF          6 INNER ITERATIONS.
    ------------------------------------------------

 NO OUTPUT CONTROL FOR STRESS PERIOD   14   TIME STEP   29
 
 SOLVING FOR HEAD 
                                                   Max.-Head-Change                         Max.-Flux-Residual
  Residual-Control   Outer-Iter.   Inner-Iter.     Column Row Layer    Maximum-Head-Change  Column Row Layer    Maximum-Flux-Residual          L2-NORM 
          0                 1           2             4    7     1       0.1570716376E-01       4    7    1         0.8245599339E+00      0.2009999313E+01
          0                 2           2             4    7     1      -0.1527883816E-02       4    7    1        -0.8245633640E-01      0.2009952348E+00
          0                 3           1             4    7     1       0.1040431763E-03       4    7    1         0.5771942810E-02      0.1406922294E-01
          0                 4           1             4    7     1      -0.4139977457E-05       4    7    1        -0.2360728065E-03      0.5754069062E-03

    ------------------------------------------------
       NWT REQUIRED            4 OUTER ITERATIONS 
       AND A TOTAL OF          6 INNER ITERATIONS.
    ------------------------------------------------

 NO OUTPUT CONTROL FOR STRESS PERIOD   14   TIME STEP   30



 STREAM LISTING     PERIOD     14   STEP       30

 LAYER ROW COL. STREAM  RCH.  FLOW INTO     FLOW TO   FLOW OUT OF   OVRLND.     DIRECT     STREAM       STREAM     STREAM     STREAM   STREAMBED  STREAMBED
                SEG.NO.  NO.  STRM. RCH.    AQUIFER    STRM. RCH.    RUNOFF     PRECIP       ET          HEAD       DEPTH      WIDTH   CONDCTNC.   GRADIENT

   1    1    1     1     1    1.9000E+01  2.1427E-01   1.8786E+01  0.000E+00  0.000E+00  0.000E+00  1.09413E+03  1.082E+00  1.166E+01  5.249E-02  1.361E+00
   1    2    2     1     2    1.8786E+01  3.3055E-01   1.8455E+01  0.000E+00  0.000E+00  0.000E+00  1.08914E+03  1.077E+00  1.158E+01  8.107E-02  1.359E+00
   1    3    3     1     3    1.8455E+01  2.8065E-01   1.8175E+01  0.000E+00  0.000E+00  0.000E+00  1.08349E+03  1.072E+00  1.149E+01  6.892E-02  1.357E+00
   1    3    4     1     4    1.8175E+01  2.5740E-01   1.7917E+01  0.000E+00  0.000E+00  0.000E+00  1.07848E+03  1.068E+00  1.140E+01  6.328E-02  1.356E+00
   1    4    5     2     1    1.5917E+01  3.0543E-01   1.5612E+01  0.000E+00  0.000E+00  0.000E+00  1.07285E+03  9.157E-01  1.200E+01  7.800E-02  1.305E+00
   1    5    6     2     2    1.5612E+01  2.3438E-01   1.5378E+01  0.000E+00  0.000E+00  0.000E+00  1.06742E+03  9.063E-01  1.200E+01  6.000E-02  1.302E+00
   1    6    6     2     3    1.5378E+01  2.3388E-01   1.5144E+01  0.000E+00  0.000E+00  0.000E+00  1.06269E+03  8.980E-01  1.200E+01  6.000E-02  1.299E+00
   1    7    6     2     4    1.5144E+01  2.3339E-01   1.4910E+01  0.000E+00  0.000E+00  0.000E+00  1.05797E+03  8.898E-01  1.200E+01  6.000E-02  1.297E+00
   1    8    6     2     5    1.4910E+01  2.3289E-01   1.4677E+01  0.000E+00  0.000E+00  0.000E+00  1.05324E+03  8.814E-01  1.200E+01  6.000E-02  1.294E+00
   1    3    5     3     1    2.0000E+00  2.8252E-01   1.7175E+00  0.000E+00  0.000E+00  0.000E+00  1.07555E+03  1.909E+00  9.636E+00  7.227E-02  1.955E+00
   1    3    6     3     2    1.7175E+00  2.4905E-01   1.4684E+00  0.000E+00  0.000E+00  0.000E+00  1.07264E+03  1.727E+00  8.909E+00  6.682E-02  1.864E+00
   1    3    7     3     3    1.4684E+00  1.9718E-01   1.2712E+00  0.000E+00  0.000E+00  0.000E+00  1.06987E+03  1.555E+00  8.218E+00  5.547E-02  1.777E+00
   1    4    8     3     4    1.2712E+00  2.2567E-01   1.0456E+00  0.000E+00  0.000E+00  0.000E+00  1.06682E+03  1.364E+00  7.455E+00  6.709E-02  1.682E+00
   1    5    8     3     5    1.0456E+00  1.5790E-01   8.8768E-01  0.000E+00  0.000E+00  0.000E+00  1.06362E+03  1.164E+00  6.655E+00  4.991E-02  1.582E+00
   1    6    8     3     6    8.8768E-01  5.5980E-02   8.3170E-01  0.000E+00  0.000E+00  0.000E+00  1.06158E+03  1.036E+00  6.145E+00  1.844E-02  1.518E+00
   1    5   10     4     1    1.0000E+01  9.0919E-02   9.9091E+00  0.000E+00  0.000E+00  0.000E+00  1.07836E+03  6.368E-01  1.000E+01  2.500E-02  1.212E+00
   1    5    9     4     2    9.9091E+00  1.8158E-01   9.7275E+00  0.000E+00  0.000E+00  0.000E+00  1.07154E+03  6.315E-01  1.000E+01  5.000E-02  1.211E+00
   1    6    8     4     3    9.7275E+00  1.2689E-01   9.6006E+00  0.000E+00  0.000E+00  0.000E+00  1.06381E+03  6.256E-01  1.000E+01  3.500E-02  1.209E+00
   1    6    8     5     1    1.0432E+01  2.2686E-01   1.0205E+01  0.000E+00  0.000E+00  0.000E+00  1.05868E+03  6.790E-01  1.542E+01  6.166E-02  1.226E+00
   1    7    7     5     2    1.0205E+01  2.7894E-01   9.9265E+00  0.000E+00  0.000E+00  0.000E+00  1.05417E+03  6.732E-01  1.519E+01  7.594E-02  1.224E+00
   1    8    7     5     3    9.9265E+00  1.9221E-01   9.7343E+00  0.000E+00  0.000E+00  0.000E+00  1.04992E+03  6.676E-01  1.497E+01  5.241E-02  1.223E+00
   1    8    6     5     4    9.7343E+00  1.3577E-01   9.5985E+00  0.000E+00  0.000E+00  0.000E+00  1.04691E+03  6.637E-01  1.482E+01  3.706E-02  1.221E+00
   1    9    6     6     1    2.4276E+01  2.5176E-01   2.4024E+01  0.000E+00  0.000E+00  0.000E+00  1.04392E+03  1.196E+00  1.200E+01  6.000E-02  1.399E+00
   1   10    7     6     2    2.4024E+01  2.5131E-01   2.3773E+01  0.000E+00  0.000E+00  0.000E+00  1.03937E+03  1.188E+00  1.200E+01  6.000E-02  1.396E+00
   1   11    7     6     3    2.3773E+01  2.5086E-01   2.3522E+01  0.000E+00  0.000E+00  0.000E+00  1.03482E+03  1.181E+00  1.200E+01  6.000E-02  1.394E+00
   1   12    7     6     4    2.3522E+01  2.5041E-01   2.3272E+01  0.000E+00  0.000E+00  0.000E+00  1.03026E+03  1.173E+00  1.200E+01  6.000E-02  1.391E+00
   1   13    7     6     5    2.3272E+01 -1.4719E-02   2.3286E+01  0.000E+00  0.000E+00  0.000E+00  1.02708E+03  1.170E+00  1.200E+01  2.400E-01 -2.044E-02
   1   14    9     7     1    1.5000E+02  1.3294E+00   1.4867E+02  0.000E+00  0.000E+00  0.000E+00  1.03987E+03  2.288E+00  5.529E+01  5.593E-01  7.923E-01
   1   13    8     7     2    1.4867E+02  1.8059E+00   1.4686E+02  0.000E+00  0.000E+00  0.000E+00  1.03478E+03  2.279E+00  5.526E+01  6.148E-01  9.791E-01
   1   13    7     7     3    1.4686E+02  1.4240E+00   1.4544E+02  0.000E+00  0.000E+00  0.000E+00  1.02969E+03  2.271E+00  5.522E+01  5.585E-01  8.499E-01
   1   13    6     8     1    1.6873E+02  8.7489E-01   1.6785E+02  0.000E+00  0.000E+00  0.000E+00  1.02482E+03  2.941E+00  4.264E+01  4.346E-01  6.711E-01
   1   13    5     8     2    1.6785E+02  1.4214E-01   1.6771E+02  0.000E+00  0.000E+00  0.000E+00  1.01856E+03  2.938E+00  4.260E+01  4.341E-01  1.092E-01
   1   13    4     8     3    1.6771E+02 -2.5274E+00   1.7024E+02  0.000E+00  0.000E+00  0.000E+00  1.01232E+03  2.946E+00  4.271E+01  4.352E+00 -1.936E-01
   1   13    3     8     4    1.7024E+02 -3.7097E+00   1.7395E+02  0.000E+00  0.000E+00  0.000E+00  1.00609E+03  2.966E+00  4.300E+01  4.382E+00 -2.822E-01
   1   13    2     8     5    1.7395E+02 -2.6053E+00   1.7655E+02  0.000E+00  0.000E+00  0.000E+00  9.99861E+02  2.986E+00  4.330E+01  4.412E+00 -1.968E-01
   1   13    1     8     6    1.7655E+02 -2.0003E+00   1.7855E+02  0.000E+00  0.000E+00  0.000E+00  9.94876E+02  3.001E+00  4.351E+01  2.660E+00 -2.506E-01





UNSATURATED ZONE PACKAGE VOLUMETRIC BUDGET FOR  TIME STEP    30 STRESS PERIOD   14
  ------------------------------------------------------------------------------



     CUMULATIVE VOLUMES      L**3       RATES FOR THIS TIME STEP      L**3/T
     ------------------                 ------------------------

           IN:                                      IN:
           ---                                      ---
        INFILTRATION =   550594856.4294          INFILTRATION =           4.4075

          OUT:                                     OUT:
          ----                                     ----
              UZF ET =   499998764.2258                UZF ET =           0.7250
        UZF RECHARGE =       73224.0000          UZF RECHARGE =       0.0000E+00

            IN - OUT =    50522868.2036              IN - OUT =           3.6825

          STORAGE:                                 STORAGE:
          --------                                 --------
      STORAGE CHANGE =    50523563.2211        STORAGE CHANGE =           3.6825

 PERCENT DISCREPANCY IS DIFFERENCE BETWEEN IN-OUT MINUS CHANGE IN STORAGE
 DIVIDED BY THE AVERAGE OF IN AND OUT TIMES 100

 PERCENT DISCREPANCY =          -0.00     PERCENT DISCREPANCY =           0.00






1
  VOLUMETRIC BUDGET FOR ENTIRE MODEL AT END OF TIME STEP   30, STRESS PERIOD  14
  ------------------------------------------------------------------------------

     CUMULATIVE VOLUMES      L**3       RATES FOR THIS TIME STEP      L**3/T
     ------------------                 ------------------------

           IN:                                      IN:
           ---                                      ---
               AG WELLS  =   399829152.0000                 AG WELLS  =           0.0000
      DIVERSION SEGMENTS =           0.0000        DIVERSION SEGMENTS =           0.0000
           GW IRRIGATION =           0.0000             GW IRRIGATION =           0.0000
           SW IRRIGATION =           0.0000             SW IRRIGATION =           0.0000
        SYSTEM LOSSES GW =           0.0000          SYSTEM LOSSES GW =           0.0000
        SYSTEM LOSSES SW =           0.0000          SYSTEM LOSSES SW =           0.0000

                TOTAL IN =   399829152.0000                  TOTAL IN =           0.0000

          OUT:                                     OUT:
          ----                                     ----
               AG WELLS  =           0.0000                 AG WELLS  =           0.0000
      DIVERSION SEGMENTS =           0.0000        DIVERSION SEGMENTS =           0.0000
           GW IRRIGATION =   399829152.0000             GW IRRIGATION =           0.0000
           SW IRRIGATION =           0.0000             SW IRRIGATION =           0.0000
        SYSTEM LOSSES GW =           0.0000          SYSTEM LOSSES GW =           0.0000
        SYSTEM LOSSES SW =           0.0000          SYSTEM LOSSES SW =           0.0000

               TOTAL OUT =   399829152.0000                 TOTAL OUT =           0.0000

                IN - OUT =           0.0000                  IN - OUT =           0.0000

     PERCENT DISCREPANCY =           0.00         PERCENT DISCREPANCY =           0.00



1
  VOLUMETRIC BUDGET FOR ENTIRE MODEL AT END OF TIME STEP   30, STRESS PERIOD  14
  ------------------------------------------------------------------------------

     CUMULATIVE VOLUMES      L**3       RATES FOR THIS TIME STEP      L**3/T
     ------------------                 ------------------------

           IN:                                      IN:
           ---                                      ---
             STORAGE     =   547804992.0000               STORAGE     =           6.2186
       CONSTANT HEAD     =           0.0000         CONSTANT HEAD     =           0.0000
     HEAD DEP BOUNDS     =     9783316.0000       HEAD DEP BOUNDS     =           0.2853
      STREAM LEAKAGE     =   424097280.0000        STREAM LEAKAGE     =          11.3050
        UZF RECHARGE     =       73223.9531          UZF RECHARGE     =           0.0000
               GW ET     =           0.0000                 GW ET     =           0.0000
     SURFACE LEAKAGE     =           0.0000       SURFACE LEAKAGE     =           0.0000
           AG WELLS      =           0.0000             AG WELLS      =           0.0000

                TOTAL IN =   981758784.0000                  TOTAL IN =          17.8089

          OUT:                                     OUT:
          ----                                     ----
             STORAGE     =   200536608.0000               STORAGE     =           6.6616
       CONSTANT HEAD     =           0.0000         CONSTANT HEAD     =           0.0000
     HEAD DEP BOUNDS     =    10088155.0000       HEAD DEP BOUNDS     =           0.2899
      STREAM LEAKAGE     =   357723200.0000        STREAM LEAKAGE     =          10.8574
        UZF RECHARGE     =           0.0000          UZF RECHARGE     =           0.0000
               GW ET     =    13586479.0000                 GW ET     =           0.0000
     SURFACE LEAKAGE     =           0.0000       SURFACE LEAKAGE     =           0.0000
           AG WELLS      =   399829152.0000             AG WELLS      =           0.0000

               TOTAL OUT =   981763584.0000                 TOTAL OUT =          17.8089

                IN - OUT =       -4800.0000                  IN - OUT =       5.7220E-06

     PERCENT DISCREPANCY =          -0.00         PERCENT DISCREPANCY =           0.00






         TIME SUMMARY AT END OF TIME STEP   30 IN STRESS PERIOD   14
                    SECONDS     MINUTES      HOURS       DAYS        YEARS
                    -----------------------------------------------------------
   TIME STEP LENGTH  87667.      1461.1      24.352      1.0147     2.77799E-03
 STRESS PERIOD TIME 2.63000E+06  43833.      730.56      30.440     8.33397E-02
         TOTAL TIME 3.42763E+07 5.71272E+05  9521.2      396.72      1.0862    
1
1
                            STRESS PERIOD NO.   15, LENGTH =   2630000.    
                            -----------------------------------------------

                              NUMBER OF TIME STEPS =    30

                               MULTIPLIER FOR DELT =     1.000

                            INITIAL TIME STEP SIZE =   87666.66    

 REUSING NON-PARAMETER GHB CELLS FROM LAST STRESS PERIOD

      2 GHB CELLS

 REUSING STREAM SEGMENT DATA FROM LAST STRESS PERIOD



            AREAL INFILTRATION RATE
 READING ON UNIT   19 WITH FORMAT: (10F4.0)            

            1           2           3           4           5           6           7           8           9          10
 ........................................................................................................................
   1   1.2000E-09   0.000       0.000       0.000       0.000       0.000       0.000       0.000       0.000       0.000    
   2   2.1000E-09  2.0000E-09  8.0000E-10  8.5000E-09   0.000       0.000       0.000       0.000       0.000       0.000    
   3   5.0000E-10  1.1000E-09  8.8000E-09  5.5000E-09   0.000       0.000       0.000       0.000       0.000       0.000    
   4   8.5000E-09  1.1000E-09  1.1000E-09  1.1000E-09  2.0000E-09   0.000       0.000       0.000       0.000       0.000    
   5   8.5000E-09  1.1000E-09  1.1000E-09  1.1000E-09  1.1000E-09   0.000       0.000       0.000       0.000       0.000    
   6   8.5000E-09  5.2000E-09  2.1000E-09  1.1000E-09  1.5000E-09   0.000       0.000       0.000       0.000       0.000    
   7   8.5000E-09  5.2000E-09  2.1000E-09  1.2000E-09  2.0000E-09   0.000       0.000       0.000       0.000       0.000    
   8   5.0000E-10  5.2000E-09  2.1000E-09  1.2000E-09  5.0000E-09   0.000       0.000       0.000       0.000       0.000    
   9   5.0000E-10  5.2000E-09  2.1000E-09  1.2000E-09  5.0000E-09   0.000       0.000       0.000       0.000       0.000    
  10   5.0000E-10  5.2000E-09  2.1000E-09  1.2000E-09  5.8000E-09   0.000       0.000       0.000       0.000       0.000    
  11   1.0000E-10  1.1000E-09  1.1000E-09  1.2000E-09  5.0000E-09   0.000       0.000       0.000       0.000       0.000    
  12   1.1000E-09  1.1000E-09  1.1000E-09  1.1000E-09  2.0000E-09   0.000       0.000       0.000       0.000       0.000    
  13   1.1000E-09  2.2000E-09  2.2000E-09  2.1000E-09  1.0000E-09   0.000       0.000       0.000       0.000       0.000    
  14   2.0000E-10  5.5000E-09  5.5000E-09  5.2000E-09  1.0000E-09   0.000       0.000       0.000       0.000       0.000    
  15    0.000      8.8000E-09  8.8000E-09   0.000       0.000       0.000       0.000       0.000       0.000       0.000    

                  ET RATE =  5.000000E-10

 USING ET EXTINCTION DEPTH FROM PREVIOUS STRESS PERIOD. CURRENT PERIOD IS:      15

 USING EXTINCTION WATER CONTENT FROM PREVIOUS STRESS PERIOD. CURRENT PERIOD IS:      15

 USING AIR ENTRY PRESSURE FROM PREVIOUS STRESS PERIOD. CURRENT PERIOD IS:      15

 USING ROOT PRESSURE HEAD FROM PREVIOUS STRESS PERIOD. CURRENT PERIOD IS:      15

 USING ROOT ACTIVITY FROM PREVIOUS STRESS PERIOD. CURRENT PERIOD IS:      15

 PROCESSING AG STRESS PERIOD DATA

 READING AG STRESS PERIOD DATA

 READING IRRIGATION WELL

 END PROCESSING AG STRESS PERIOD DATA OPTIONS
 
 SOLVING FOR HEAD 
                                                   Max.-Head-Change                         Max.-Flux-Residual
  Residual-Control   Outer-Iter.   Inner-Iter.     Column Row Layer    Maximum-Head-Change  Column Row Layer    Maximum-Flux-Residual          L2-NORM 
          0                 1           2             4    7     1       0.1554725218E-01       4    7    1         0.8161274435E+00      0.1993262671E+01
          0                 2           2             4    7     1      -0.1512328667E-02       4    7    1        -0.8161307973E-01      0.1993217770E+00
          0                 3           1             4    7     1       0.1029839291E-03       4    7    1         0.5712914870E-02      0.1395210901E-01
          0                 4           1             4    7     1      -0.4097829358E-05       4    7    1        -0.2336585569E-03      0.5706037815E-03

    ------------------------------------------------
       NWT REQUIRED            4 OUTER ITERATIONS 
       AND A TOTAL OF          6 INNER ITERATIONS.
    ------------------------------------------------

 NO OUTPUT CONTROL FOR STRESS PERIOD   15   TIME STEP    1
 
 SOLVING FOR HEAD 
                                                   Max.-Head-Change                         Max.-Flux-Residual
  Residual-Control   Outer-Iter.   Inner-Iter.     Column Row Layer    Maximum-Head-Change  Column Row Layer    Maximum-Flux-Residual          L2-NORM 
          0                 1           2             4    7     1       0.1538973231E-01       4    7    1         0.8078214829E+00      0.1974107119E+01
          0                 2           2             4    7     1      -0.1497048081E-02       4    7    1        -0.8078247624E-01      0.1974624541E+00
          0                 3           1             4    7     1       0.1019433792E-03       4    7    1         0.5654772696E-02      0.1382234747E-01
          0                 4           1             4    7     1      -0.4056424867E-05       4    7    1        -0.2312805393E-03      0.5653409099E-03

    ------------------------------------------------
       NWT REQUIRED            4 OUTER ITERATIONS 
       AND A TOTAL OF          6 INNER ITERATIONS.
    ------------------------------------------------

 NO OUTPUT CONTROL FOR STRESS PERIOD   15   TIME STEP    2
 
 SOLVING FOR HEAD 
                                                   Max.-Head-Change                         Max.-Flux-Residual
  Residual-Control   Outer-Iter.   Inner-Iter.     Column Row Layer    Maximum-Head-Change  Column Row Layer    Maximum-Flux-Residual          L2-NORM 
          0                 1           2             4    7     1       0.1523429262E-01       4    7    1         0.7996299340E+00      0.1956668979E+01
          0                 2           2             4    7     1      -0.1481886026E-02       4    7    1        -0.7996331429E-01      0.1956666801E+00
          0                 3           1             4    7     1       0.1009109002E-03       4    7    1         0.5597431382E-02      0.1369661961E-01
          0                 4           1             4    7     1      -0.4015341698E-05       4    7    1        -0.2289352742E-03      0.5601698776E-03

    ------------------------------------------------
       NWT REQUIRED            4 OUTER ITERATIONS 
       AND A TOTAL OF          6 INNER ITERATIONS.
    ------------------------------------------------

 NO OUTPUT CONTROL FOR STRESS PERIOD   15   TIME STEP    3
 
 SOLVING FOR HEAD 
                                                   Max.-Head-Change                         Max.-Flux-Residual
  Residual-Control   Outer-Iter.   Inner-Iter.     Column Row Layer    Maximum-Head-Change  Column Row Layer    Maximum-Flux-Residual          L2-NORM 
          0                 1           2             4    7     1       0.1508116009E-01       4    7    1         0.7915580674E+00      0.1940466186E+01
          0                 2           2             4    7     1      -0.1466990304E-02       4    7    1        -0.7915612067E-01      0.1940465395E+00
          0                 3           1             4    7     1       0.9989655812E-04       4    7    1         0.5540927893E-02      0.1358321868E-01

    ------------------------------------------------
       NWT REQUIRED            3 OUTER ITERATIONS 
       AND A TOTAL OF          5 INNER ITERATIONS.
    ------------------------------------------------

 NO OUTPUT CONTROL FOR STRESS PERIOD   15   TIME STEP    4
 
 SOLVING FOR HEAD 
                                                   Max.-Head-Change                         Max.-Flux-Residual
  Residual-Control   Outer-Iter.   Inner-Iter.     Column Row Layer    Maximum-Head-Change  Column Row Layer    Maximum-Flux-Residual          L2-NORM 
          0                 1           2             4    7     1       0.1493006732E-01       4    7    1         0.7835934430E+00      0.1924496918E+01
          0                 2           2             4    7     1      -0.1452292995E-02       4    7    1        -0.7835965138E-01      0.1924497159E+00
          0                 3           1             4    7     1       0.9889572626E-04       4    7    1         0.5485175049E-02      0.1347145868E-01

    ------------------------------------------------
       NWT REQUIRED            3 OUTER ITERATIONS 
       AND A TOTAL OF          5 INNER ITERATIONS.
    ------------------------------------------------

 NO OUTPUT CONTROL FOR STRESS PERIOD   15   TIME STEP    5
 
 SOLVING FOR HEAD 
                                                   Max.-Head-Change                         Max.-Flux-Residual
  Residual-Control   Outer-Iter.   Inner-Iter.     Column Row Layer    Maximum-Head-Change  Column Row Layer    Maximum-Flux-Residual          L2-NORM 
          0                 1           2             4    7     1       0.1478129341E-01       4    7    1         0.7757521233E+00      0.1908722848E+01
          0                 2           2             4    7     1      -0.1437821252E-02       4    7    1        -0.7757551276E-01      0.1908712668E+00
          0                 3           1             4    7     1       0.9791025520E-04       4    7    1         0.5430285391E-02      0.1336096882E-01

    ------------------------------------------------
       NWT REQUIRED            3 OUTER ITERATIONS 
       AND A TOTAL OF          5 INNER ITERATIONS.
    ------------------------------------------------

 NO OUTPUT CONTROL FOR STRESS PERIOD   15   TIME STEP    6
 
 SOLVING FOR HEAD 
                                                   Max.-Head-Change                         Max.-Flux-Residual
  Residual-Control   Outer-Iter.   Inner-Iter.     Column Row Layer    Maximum-Head-Change  Column Row Layer    Maximum-Flux-Residual          L2-NORM 
          0                 1           2             4    7     1       0.1463452118E-01       4    7    1         0.7680163103E+00      0.1893174820E+01
          0                 2           2             4    7     1      -0.1423544220E-02       4    7    1        -0.7680192496E-01      0.1893175777E+00
          0                 3           1             4    7     1       0.9693804317E-04       4    7    1         0.5376134287E-02      0.1325221012E-01

    ------------------------------------------------
       NWT REQUIRED            3 OUTER ITERATIONS 
       AND A TOTAL OF          5 INNER ITERATIONS.
    ------------------------------------------------

 NO OUTPUT CONTROL FOR STRESS PERIOD   15   TIME STEP    7
 
 SOLVING FOR HEAD 
                                                   Max.-Head-Change                         Max.-Flux-Residual
  Residual-Control   Outer-Iter.   Inner-Iter.     Column Row Layer    Maximum-Head-Change  Column Row Layer    Maximum-Flux-Residual          L2-NORM 
          0                 1           2             4    7     1       0.1448985615E-01       4    7    1         0.7603916417E+00      0.1877837779E+01
          0                 2           2             4    7     1      -0.1409472163E-02       4    7    1        -0.7603945176E-01      0.1877838964E+00
          0                 3           1             4    7     1       0.9597978931E-04       4    7    1         0.5322761204E-02      0.1314487914E-01

    ------------------------------------------------
       NWT REQUIRED            3 OUTER ITERATIONS 
       AND A TOTAL OF          5 INNER ITERATIONS.
    ------------------------------------------------

 NO OUTPUT CONTROL FOR STRESS PERIOD   15   TIME STEP    8
 
 SOLVING FOR HEAD 
                                                   Max.-Head-Change                         Max.-Flux-Residual
  Residual-Control   Outer-Iter.   Inner-Iter.     Column Row Layer    Maximum-Head-Change  Column Row Layer    Maximum-Flux-Residual          L2-NORM 
          0                 1           2             4    7     1       0.1434725354E-01       4    7    1         0.7528762277E+00      0.1862692044E+01
          0                 2           2             4    7     1      -0.1395600726E-02       4    7    1        -0.7528790419E-01      0.1862692995E+00
          0                 3           1             4    7     1       0.9503519681E-04       4    7    1         0.5270152914E-02      0.1303884820E-01

    ------------------------------------------------
       NWT REQUIRED            3 OUTER ITERATIONS 
       AND A TOTAL OF          5 INNER ITERATIONS.
    ------------------------------------------------

 NO OUTPUT CONTROL FOR STRESS PERIOD   15   TIME STEP    9
 
 SOLVING FOR HEAD 
                                                   Max.-Head-Change                         Max.-Flux-Residual
  Residual-Control   Outer-Iter.   Inner-Iter.     Column Row Layer    Maximum-Head-Change  Column Row Layer    Maximum-Flux-Residual          L2-NORM 
          0                 1           2             4    7     1       0.1420667617E-01       4    7    1         0.7454677471E+00      0.1847749844E+01
          0                 2           2             4    7     1      -0.1381926292E-02       4    7    1        -0.7454705010E-01      0.1847750472E+00
          0                 3           1             4    7     1       0.9410401943E-04       4    7    1         0.5218293163E-02      0.1293424567E-01

    ------------------------------------------------
       NWT REQUIRED            3 OUTER ITERATIONS 
       AND A TOTAL OF          5 INNER ITERATIONS.
    ------------------------------------------------

 NO OUTPUT CONTROL FOR STRESS PERIOD   15   TIME STEP   10
 
 SOLVING FOR HEAD 
                                                   Max.-Head-Change                         Max.-Flux-Residual
  Residual-Control   Outer-Iter.   Inner-Iter.     Column Row Layer    Maximum-Head-Change  Column Row Layer    Maximum-Flux-Residual          L2-NORM 
          0                 1           2             4    7     1       0.1406794969E-01       4    7    1         0.7381569090E+00      0.1832995980E+01
          0                 2           2             4    7     1      -0.1368431899E-02       4    7    1        -0.7381596039E-01      0.1832996190E+00
          0                 3           1             4    7     1       0.9318510208E-04       4    7    1         0.5167116906E-02      0.1283096571E-01

    ------------------------------------------------
       NWT REQUIRED            3 OUTER ITERATIONS 
       AND A TOTAL OF          5 INNER ITERATIONS.
    ------------------------------------------------

 NO OUTPUT CONTROL FOR STRESS PERIOD   15   TIME STEP   11
 
 SOLVING FOR HEAD 
                                                   Max.-Head-Change                         Max.-Flux-Residual
  Residual-Control   Outer-Iter.   Inner-Iter.     Column Row Layer    Maximum-Head-Change  Column Row Layer    Maximum-Flux-Residual          L2-NORM 
          0                 1           2             4    7     1       0.1393131441E-01       4    7    1         0.7309567610E+00      0.1818435254E+01
          0                 2           2             4    7     1      -0.1355140927E-02       4    7    1        -0.7309593984E-01      0.1818434853E+00
          0                 3           1             4    7     1       0.9228003699E-04       4    7    1         0.5116715497E-02      0.1272902388E-01

    ------------------------------------------------
       NWT REQUIRED            3 OUTER ITERATIONS 
       AND A TOTAL OF          5 INNER ITERATIONS.
    ------------------------------------------------

 NO OUTPUT CONTROL FOR STRESS PERIOD   15   TIME STEP   12
 
 SOLVING FOR HEAD 
                                                   Max.-Head-Change                         Max.-Flux-Residual
  Residual-Control   Outer-Iter.   Inner-Iter.     Column Row Layer    Maximum-Head-Change  Column Row Layer    Maximum-Flux-Residual          L2-NORM 
          0                 1           2             4    7     1       0.1379645547E-01       4    7    1         0.7238503128E+00      0.1804050197E+01
          0                 2           2             4    7     1      -0.1342022746E-02       4    7    1        -0.7238528941E-01      0.1804049165E+00
          0                 3           1             4    7     1       0.9138673834E-04       4    7    1         0.5066970005E-02      0.1262829540E-01

    ------------------------------------------------
       NWT REQUIRED            3 OUTER ITERATIONS 
       AND A TOTAL OF          5 INNER ITERATIONS.
    ------------------------------------------------

 NO OUTPUT CONTROL FOR STRESS PERIOD   15   TIME STEP   13
 
 SOLVING FOR HEAD 
                                                   Max.-Head-Change                         Max.-Flux-Residual
  Residual-Control   Outer-Iter.   Inner-Iter.     Column Row Layer    Maximum-Head-Change  Column Row Layer    Maximum-Flux-Residual          L2-NORM 
          0                 1           2             4    7     1       0.1366361312E-01       4    7    1         0.7168506910E+00      0.1789855902E+01
          0                 2           2             4    7     1      -0.1329100727E-02       4    7    1        -0.7168532176E-01      0.1789854328E+00
          0                 3           1             4    7     1       0.9050679741E-04       4    7    1         0.5017972291E-02      0.1252893807E-01

    ------------------------------------------------
       NWT REQUIRED            3 OUTER ITERATIONS 
       AND A TOTAL OF          5 INNER ITERATIONS.
    ------------------------------------------------

 NO OUTPUT CONTROL FOR STRESS PERIOD   15   TIME STEP   14
 
 SOLVING FOR HEAD 
                                                   Max.-Head-Change                         Max.-Flux-Residual
  Residual-Control   Outer-Iter.   Inner-Iter.     Column Row Layer    Maximum-Head-Change  Column Row Layer    Maximum-Flux-Residual          L2-NORM 
          0                 1           2             4    7     1       0.1353260640E-01       4    7    1         0.7099482626E+00      0.1775834047E+01
          0                 2           2             4    7     1      -0.1316357266E-02       4    7    1        -0.7099507360E-01      0.1775832102E+00
          0                 3           1             4    7     1       0.8963901580E-04       4    7    1         0.4969654964E-02      0.1243079871E-01

    ------------------------------------------------
       NWT REQUIRED            3 OUTER ITERATIONS 
       AND A TOTAL OF          5 INNER ITERATIONS.
    ------------------------------------------------

 NO OUTPUT CONTROL FOR STRESS PERIOD   15   TIME STEP   15
 
 SOLVING FOR HEAD 
                                                   Max.-Head-Change                         Max.-Flux-Residual
  Residual-Control   Outer-Iter.   Inner-Iter.     Column Row Layer    Maximum-Head-Change  Column Row Layer    Maximum-Flux-Residual          L2-NORM 
          0                 1           2             4    7     1       0.1340327112E-01       4    7    1         0.7031336445E+00      0.1761986095E+01
          0                 2           2             4    7     1      -0.1303776392E-02       4    7    1        -0.7031360655E-01      0.1761983133E+00
          0                 3           1             4    7     1       0.8878230590E-04       4    7    1         0.4921952303E-02      0.1233383631E-01

    ------------------------------------------------
       NWT REQUIRED            3 OUTER ITERATIONS 
       AND A TOTAL OF          5 INNER ITERATIONS.
    ------------------------------------------------

 NO OUTPUT CONTROL FOR STRESS PERIOD   15   TIME STEP   16
 
 SOLVING FOR HEAD 
                                                   Max.-Head-Change                         Max.-Flux-Residual
  Residual-Control   Outer-Iter.   Inner-Iter.     Column Row Layer    Maximum-Head-Change  Column Row Layer    Maximum-Flux-Residual          L2-NORM 
          0                 1           2             4    7     1       0.1327584849E-01       4    7    1         0.6964204153E+00      0.1748307379E+01
          0                 2           2             4    7     1      -0.1291381569E-02       4    7    1        -0.6964227853E-01      0.1748303805E+00
          0                 3           1             4    7     1       0.8793826499E-04       4    7    1         0.4874959360E-02      0.1223808811E-01

    ------------------------------------------------
       NWT REQUIRED            3 OUTER ITERATIONS 
       AND A TOTAL OF          5 INNER ITERATIONS.
    ------------------------------------------------

 NO OUTPUT CONTROL FOR STRESS PERIOD   15   TIME STEP   17
 
 SOLVING FOR HEAD 
                                                   Max.-Head-Change                         Max.-Flux-Residual
  Residual-Control   Outer-Iter.   Inner-Iter.     Column Row Layer    Maximum-Head-Change  Column Row Layer    Maximum-Flux-Residual          L2-NORM 
          0                 1           2             4    7     1       0.1315016041E-01       4    7    1         0.6897989903E+00      0.1734794680E+01
          0                 2           2             4    7     1      -0.1279155472E-02       4    7    1        -0.6898013109E-01      0.1734790291E+00
          0                 3           1             4    7     1       0.8710571374E-04       4    7    1         0.4828609067E-02      0.1214347996E-01

    ------------------------------------------------
       NWT REQUIRED            3 OUTER ITERATIONS 
       AND A TOTAL OF          5 INNER ITERATIONS.
    ------------------------------------------------

 NO OUTPUT CONTROL FOR STRESS PERIOD   15   TIME STEP   18
 
 SOLVING FOR HEAD 
                                                   Max.-Head-Change                         Max.-Flux-Residual
  Residual-Control   Outer-Iter.   Inner-Iter.     Column Row Layer    Maximum-Head-Change  Column Row Layer    Maximum-Flux-Residual          L2-NORM 
          0                 1           2             4    7     1       0.1302617528E-01       4    7    1         0.6832674982E+00      0.1721446188E+01
          0                 2           2             4    7     1      -0.1269157899E-02       4    7    1        -0.6845809916E-01      0.1721797061E+00
          0                 3           1             4    7     1       0.8642491479E-04       4    7    1         0.4792066716E-02      0.1205251945E-01

    ------------------------------------------------
       NWT REQUIRED            3 OUTER ITERATIONS 
       AND A TOTAL OF          5 INNER ITERATIONS.
    ------------------------------------------------

 NO OUTPUT CONTROL FOR STRESS PERIOD   15   TIME STEP   19
 
 SOLVING FOR HEAD 
                                                   Max.-Head-Change                         Max.-Flux-Residual
  Residual-Control   Outer-Iter.   Inner-Iter.     Column Row Layer    Maximum-Head-Change  Column Row Layer    Maximum-Flux-Residual          L2-NORM 
          0                 1           2             4    7     1       0.1289933543E-01       4    7    1         0.6767142835E+00      0.1708225072E+01
          0                 2           2             4    7     1      -0.1254757093E-02       4    7    1        -0.6767166441E-01      0.1708219466E+00
          0                 3           1             4    7     1       0.8544427424E-04       4    7    1         0.4737016316E-02      0.1195747743E-01

    ------------------------------------------------
       NWT REQUIRED            3 OUTER ITERATIONS 
       AND A TOTAL OF          5 INNER ITERATIONS.
    ------------------------------------------------

 NO OUTPUT CONTROL FOR STRESS PERIOD   15   TIME STEP   20
 
 SOLVING FOR HEAD 
                                                   Max.-Head-Change                         Max.-Flux-Residual
  Residual-Control   Outer-Iter.   Inner-Iter.     Column Row Layer    Maximum-Head-Change  Column Row Layer    Maximum-Flux-Residual          L2-NORM 
          0                 1           2             4    7     1       0.1277645361E-01       4    7    1         0.6702330411E+00      0.1695161565E+01
          0                 2           2             4    7     1      -0.1242803962E-02       4    7    1        -0.6702353470E-01      0.1695155330E+00
          0                 3           1             4    7     1       0.8463031095E-04       4    7    1         0.4691647268E-02      0.1186602561E-01

    ------------------------------------------------
       NWT REQUIRED            3 OUTER ITERATIONS 
       AND A TOTAL OF          5 INNER ITERATIONS.
    ------------------------------------------------

 NO OUTPUT CONTROL FOR STRESS PERIOD   15   TIME STEP   21
 
 SOLVING FOR HEAD 
                                                   Max.-Head-Change                         Max.-Flux-Residual
  Residual-Control   Outer-Iter.   Inner-Iter.     Column Row Layer    Maximum-Head-Change  Column Row Layer    Maximum-Flux-Residual          L2-NORM 
          0                 1           2             4    7     1       0.1265536348E-01       4    7    1         0.6638470499E+00      0.1682251612E+01
          0                 2           2             4    7     1      -0.1231025116E-02       4    7    1        -0.6638493028E-01      0.1682244767E+00
          0                 3           1             4    7     1       0.8382821612E-04       4    7    1         0.4646945000E-02      0.1177565922E-01

    ------------------------------------------------
       NWT REQUIRED            3 OUTER ITERATIONS 
       AND A TOTAL OF          5 INNER ITERATIONS.
    ------------------------------------------------

 NO OUTPUT CONTROL FOR STRESS PERIOD   15   TIME STEP   22
 
 SOLVING FOR HEAD 
                                                   Max.-Head-Change                         Max.-Flux-Residual
  Residual-Control   Outer-Iter.   Inner-Iter.     Column Row Layer    Maximum-Head-Change  Column Row Layer    Maximum-Flux-Residual          L2-NORM 
          0                 1           2             4    7     1       0.1253615887E-01       4    7    1         0.6575613197E+00      0.1669500987E+01
          0                 2           2             4    7     1      -0.1219429682E-02       4    7    1        -0.6575635214E-01      0.1669493541E+00
          0                 3           1             4    7     1       0.8303861054E-04       4    7    1         0.4602944551E-02      0.1168637152E-01

    ------------------------------------------------
       NWT REQUIRED            3 OUTER ITERATIONS 
       AND A TOTAL OF          5 INNER ITERATIONS.
    ------------------------------------------------

 NO OUTPUT CONTROL FOR STRESS PERIOD   15   TIME STEP   23
 
 SOLVING FOR HEAD 
                                                   Max.-Head-Change                         Max.-Flux-Residual
  Residual-Control   Outer-Iter.   Inner-Iter.     Column Row Layer    Maximum-Head-Change  Column Row Layer    Maximum-Flux-Residual          L2-NORM 
          0                 1           2             4    7     1       0.1241865872E-01       4    7    1         0.6513659856E+00      0.1656908262E+01
          0                 2           2             4    7     1      -0.1208000048E-02       4    7    1        -0.6513681371E-01      0.1656900046E+00
          0                 3           1             4    7     1       0.8226029605E-04       4    7    1         0.4559576907E-02      0.1159819544E-01

    ------------------------------------------------
       NWT REQUIRED            3 OUTER ITERATIONS 
       AND A TOTAL OF          5 INNER ITERATIONS.
    ------------------------------------------------

 NO OUTPUT CONTROL FOR STRESS PERIOD   15   TIME STEP   24
 
 SOLVING FOR HEAD 
                                                   Max.-Head-Change                         Max.-Flux-Residual
  Residual-Control   Outer-Iter.   Inner-Iter.     Column Row Layer    Maximum-Head-Change  Column Row Layer    Maximum-Flux-Residual          L2-NORM 
          0                 1           2             4    7     1       0.1230282597E-01       4    7    1         0.6452590252E+00      0.1644466022E+01
          0                 2           2             4    7     1      -0.1196732607E-02       4    7    1        -0.6452611280E-01      0.1644457482E+00
          0                 3           1             4    7     1       0.8149302568E-04       4    7    1         0.4516827873E-02      0.1151111234E-01

    ------------------------------------------------
       NWT REQUIRED            3 OUTER ITERATIONS 
       AND A TOTAL OF          5 INNER ITERATIONS.
    ------------------------------------------------

 NO OUTPUT CONTROL FOR STRESS PERIOD   15   TIME STEP   25
 
 SOLVING FOR HEAD 
                                                   Max.-Head-Change                         Max.-Flux-Residual
  Residual-Control   Outer-Iter.   Inner-Iter.     Column Row Layer    Maximum-Head-Change  Column Row Layer    Maximum-Flux-Residual          L2-NORM 
          0                 1           2             4    7     1       0.1218861511E-01       4    7    1         0.6392385157E+00      0.1632157629E+01
          0                 2           2             4    7     1      -0.1185622936E-02       4    7    1        -0.6392405715E-01      0.1632148812E+00
          0                 3           1             4    7     1       0.8073649862E-04       4    7    1         0.4474683994E-02      0.1142494858E-01

    ------------------------------------------------
       NWT REQUIRED            3 OUTER ITERATIONS 
       AND A TOTAL OF          5 INNER ITERATIONS.
    ------------------------------------------------

 NO OUTPUT CONTROL FOR STRESS PERIOD   15   TIME STEP   26
 
 SOLVING FOR HEAD 
                                                   Max.-Head-Change                         Max.-Flux-Residual
  Residual-Control   Outer-Iter.   Inner-Iter.     Column Row Layer    Maximum-Head-Change  Column Row Layer    Maximum-Flux-Residual          L2-NORM 
          0                 1           2             4    7     1       0.1207599321E-01       4    7    1         0.6333020988E+00      0.1619994628E+01
          0                 2           2             4    7     1      -0.1174667827E-02       4    7    1        -0.6333041085E-01      0.1619985389E+00
          0                 3           1             4    7     1       0.7999049701E-04       4    7    1         0.4433128771E-02      0.1133980438E-01

    ------------------------------------------------
       NWT REQUIRED            3 OUTER ITERATIONS 
       AND A TOTAL OF          5 INNER ITERATIONS.
    ------------------------------------------------

 NO OUTPUT CONTROL FOR STRESS PERIOD   15   TIME STEP   27
 
 SOLVING FOR HEAD 
                                                   Max.-Head-Change                         Max.-Flux-Residual
  Residual-Control   Outer-Iter.   Inner-Iter.     Column Row Layer    Maximum-Head-Change  Column Row Layer    Maximum-Flux-Residual          L2-NORM 
          0                 1           2             4    7     1       0.1196506426E-01       4    7    1         0.6274554322E+00      0.1607990021E+01
          0                 2           2             4    7     1      -0.1163877399E-02       4    7    1        -0.6274573972E-01      0.1607980089E+00
          0                 3           1             4    7     1       0.7925570946E-04       4    7    1         0.4392201819E-02      0.1125575240E-01

    ------------------------------------------------
       NWT REQUIRED            3 OUTER ITERATIONS 
       AND A TOTAL OF          5 INNER ITERATIONS.
    ------------------------------------------------

 NO OUTPUT CONTROL FOR STRESS PERIOD   15   TIME STEP   28
 
 SOLVING FOR HEAD 
                                                   Max.-Head-Change                         Max.-Flux-Residual
  Residual-Control   Outer-Iter.   Inner-Iter.     Column Row Layer    Maximum-Head-Change  Column Row Layer    Maximum-Flux-Residual          L2-NORM 
          0                 1           2             4    7     1       0.1185590887E-01       4    7    1         0.6216965427E+00      0.1706407313E+01
          0                 2           2             4    7     1      -0.1153259491E-02       4    7    1        -0.6216984635E-01      0.1700438086E+00
          0                 3           1             4    7     1       0.7853266942E-04       4    7    1         0.4351889305E-02      0.1184872093E-01

    ------------------------------------------------
       NWT REQUIRED            3 OUTER ITERATIONS 
       AND A TOTAL OF          5 INNER ITERATIONS.
    ------------------------------------------------

 NO OUTPUT CONTROL FOR STRESS PERIOD   15   TIME STEP   29
 
 SOLVING FOR HEAD 
                                                   Max.-Head-Change                         Max.-Flux-Residual
  Residual-Control   Outer-Iter.   Inner-Iter.     Column Row Layer    Maximum-Head-Change  Column Row Layer    Maximum-Flux-Residual          L2-NORM 
          0                 1           2             4   13     1       0.2955377369E-01       4   13    1         0.1711979532E+01      0.3425094802E+01
          0                 2           2             4   13     1      -0.2823654635E-02       4   13    1        -0.1693045004E+00      0.3014777306E+00
          0                 3           1             4   13     1       0.1880981389E-03       4   13    1         0.1167031379E-01      0.2125978193E-01
          0                 4           1             3   13     1      -0.1357119690E-04       3   13    1        -0.8035418887E-03      0.1144843371E-02

    ------------------------------------------------
       NWT REQUIRED            4 OUTER ITERATIONS 
       AND A TOTAL OF          6 INNER ITERATIONS.
    ------------------------------------------------

 NO OUTPUT CONTROL FOR STRESS PERIOD   15   TIME STEP   30



 STREAM LISTING     PERIOD     15   STEP       30

 LAYER ROW COL. STREAM  RCH.  FLOW INTO     FLOW TO   FLOW OUT OF   OVRLND.     DIRECT     STREAM       STREAM     STREAM     STREAM   STREAMBED  STREAMBED
                SEG.NO.  NO.  STRM. RCH.    AQUIFER    STRM. RCH.    RUNOFF     PRECIP       ET          HEAD       DEPTH      WIDTH   CONDCTNC.   GRADIENT

   1    1    1     1     1    9.8001E+01  4.7086E-01   9.7531E+01  0.000E+00  0.000E+00  0.000E+00  1.09484E+03  1.792E+00  2.184E+01  9.826E-02  1.597E+00
   1    2    2     1     2    9.7531E+01  7.3063E-01   9.6800E+01  0.000E+00  0.000E+00  0.000E+00  1.08985E+03  1.790E+00  2.179E+01  1.525E-01  1.597E+00
   1    3    3     1     3    9.6800E+01  6.2448E-01   9.6176E+01  0.000E+00  0.000E+00  0.000E+00  1.08421E+03  1.787E+00  2.174E+01  1.304E-01  1.596E+00
   1    3    4     1     4    9.6176E+01  5.7618E-01   9.5599E+01  0.000E+00  0.000E+00  0.000E+00  1.07919E+03  1.785E+00  2.170E+01  1.204E-01  1.595E+00
   1    4    5     2     1    9.3599E+01  4.4168E-01   9.3158E+01  0.000E+00  0.000E+00  0.000E+00  1.07460E+03  2.663E+00  1.200E+01  7.800E-02  1.888E+00
   1    5    6     2     2    9.3158E+01  3.3935E-01   9.2818E+01  0.000E+00  0.000E+00  0.000E+00  1.06917E+03  2.656E+00  1.200E+01  6.000E-02  1.885E+00
   1    6    6     2     3    9.2818E+01  3.3900E-01   9.2479E+01  0.000E+00  0.000E+00  0.000E+00  1.06444E+03  2.650E+00  1.200E+01  6.000E-02  1.883E+00
   1    7    6     2     4    9.2479E+01  3.3865E-01   9.2141E+01  0.000E+00  0.000E+00  0.000E+00  1.05972E+03  2.644E+00  1.200E+01  6.000E-02  1.881E+00
   1    8    6     2     5    9.2141E+01  3.3830E-01   9.1802E+01  0.000E+00  0.000E+00  0.000E+00  1.05500E+03  2.638E+00  1.200E+01  6.000E-02  1.879E+00
   1    3    5     3     1    2.0000E+00  2.8252E-01   1.7175E+00  0.000E+00  0.000E+00  0.000E+00  1.07555E+03  1.909E+00  9.636E+00  7.227E-02  1.955E+00
   1    3    6     3     2    1.7175E+00  2.4905E-01   1.4684E+00  0.000E+00  0.000E+00  0.000E+00  1.07264E+03  1.727E+00  8.909E+00  6.682E-02  1.864E+00
   1    3    7     3     3    1.4684E+00  1.9718E-01   1.2712E+00  0.000E+00  0.000E+00  0.000E+00  1.06987E+03  1.555E+00  8.218E+00  5.547E-02  1.777E+00
   1    4    8     3     4    1.2712E+00  2.2567E-01   1.0456E+00  0.000E+00  0.000E+00  0.000E+00  1.06682E+03  1.364E+00  7.455E+00  6.709E-02  1.682E+00
   1    5    8     3     5    1.0456E+00  1.5790E-01   8.8768E-01  0.000E+00  0.000E+00  0.000E+00  1.06362E+03  1.164E+00  6.655E+00  4.991E-02  1.582E+00
   1    6    8     3     6    8.8768E-01  5.5980E-02   8.3170E-01  0.000E+00  0.000E+00  0.000E+00  1.06158E+03  1.036E+00  6.145E+00  1.844E-02  1.518E+00
   1    5   10     4     1    1.0000E+01  9.0919E-02   9.9091E+00  0.000E+00  0.000E+00  0.000E+00  1.07836E+03  6.368E-01  1.000E+01  2.500E-02  1.212E+00
   1    5    9     4     2    9.9091E+00  1.8158E-01   9.7275E+00  0.000E+00  0.000E+00  0.000E+00  1.07154E+03  6.315E-01  1.000E+01  5.000E-02  1.211E+00
   1    6    8     4     3    9.7275E+00  1.2689E-01   9.6006E+00  0.000E+00  0.000E+00  0.000E+00  1.06381E+03  6.256E-01  1.000E+01  3.500E-02  1.209E+00
   1    6    8     5     1    1.0432E+01  2.2686E-01   1.0205E+01  0.000E+00  0.000E+00  0.000E+00  1.05868E+03  6.790E-01  1.542E+01  6.166E-02  1.226E+00
   1    7    7     5     2    1.0205E+01  2.7894E-01   9.9265E+00  0.000E+00  0.000E+00  0.000E+00  1.05417E+03  6.732E-01  1.519E+01  7.594E-02  1.224E+00
   1    8    7     5     3    9.9265E+00  1.9221E-01   9.7343E+00  0.000E+00  0.000E+00  0.000E+00  1.04992E+03  6.676E-01  1.497E+01  5.241E-02  1.223E+00
   1    8    6     5     4    9.7343E+00  1.3577E-01   9.5985E+00  0.000E+00  0.000E+00  0.000E+00  1.04691E+03  6.637E-01  1.482E+01  3.706E-02  1.221E+00
   1    9    6     6     1    1.0140E+02  3.4955E-01   1.0105E+02  0.000E+00  0.000E+00  0.000E+00  1.04555E+03  2.826E+00  1.200E+01  6.000E-02  1.942E+00
   1   10    7     6     2    1.0105E+02  3.4920E-01   1.0070E+02  0.000E+00  0.000E+00  0.000E+00  1.04100E+03  2.820E+00  1.200E+01  6.000E-02  1.940E+00
   1   11    7     6     3    1.0070E+02  3.4885E-01   1.0035E+02  0.000E+00  0.000E+00  0.000E+00  1.03645E+03  2.814E+00  1.200E+01  6.000E-02  1.938E+00
   1   12    7     6     4    1.0035E+02  3.4850E-01   1.0000E+02  0.000E+00  0.000E+00  0.000E+00  1.03190E+03  2.808E+00  1.200E+01  6.000E-02  1.936E+00
   1   13    7     6     5    1.0000E+02  3.8359E-02   9.9966E+01  0.000E+00  0.000E+00  0.000E+00  1.02871E+03  2.805E+00  1.200E+01  2.400E-02  5.328E-01
   1   14    9     7     1    1.5000E+02  1.3295E+00   1.4867E+02  0.000E+00  0.000E+00  0.000E+00  1.03987E+03  2.288E+00  5.529E+01  5.593E-01  7.924E-01
   1   13    8     7     2    1.4867E+02  1.8121E+00   1.4686E+02  0.000E+00  0.000E+00  0.000E+00  1.03478E+03  2.279E+00  5.526E+01  6.148E-01  9.825E-01
   1   13    7     7     3    1.4686E+02  1.4376E+00   1.4542E+02  0.000E+00  0.000E+00  0.000E+00  1.02969E+03  2.271E+00  5.522E+01  5.585E-01  8.581E-01
   1   13    6     8     1    2.4539E+02  1.2433E+00   2.4414E+02  0.000E+00  0.000E+00  0.000E+00  1.02526E+03  3.385E+00  4.908E+01  5.001E-01  8.287E-01
   1   13    5     8     2    2.4414E+02  3.9844E-01   2.4375E+02  0.000E+00  0.000E+00  0.000E+00  1.01901E+03  3.380E+00  4.902E+01  4.995E-01  2.659E-01
   1   13    4     8     3    2.4375E+02 -8.6274E-01   2.4461E+02  0.000E+00  0.000E+00  0.000E+00  1.01276E+03  3.382E+00  4.903E+01  4.997E+00 -5.755E-02
   1   13    3     8     4    2.4461E+02 -2.2698E+00   2.4688E+02  0.000E+00  0.000E+00  0.000E+00  1.00651E+03  3.390E+00  4.915E+01  5.009E+00 -1.511E-01
   1   13    2     8     5    2.4688E+02 -1.0741E+00   2.4795E+02  0.000E+00  0.000E+00  0.000E+00  1.00027E+03  3.398E+00  4.928E+01  5.021E+00 -7.130E-02
   1   13    1     8     6    2.4795E+02 -1.1112E+00   2.4906E+02  0.000E+00  0.000E+00  0.000E+00  9.95279E+02  3.404E+00  4.936E+01  3.018E+00 -1.227E-01





UNSATURATED ZONE PACKAGE VOLUMETRIC BUDGET FOR  TIME STEP    30 STRESS PERIOD   15
  ------------------------------------------------------------------------------



     CUMULATIVE VOLUMES      L**3       RATES FOR THIS TIME STEP      L**3/T
     ------------------                 ------------------------

           IN:                                      IN:
           ---                                      ---
        INFILTRATION =   562186580.9875          INFILTRATION =           4.4075

          OUT:                                     OUT:
          ----                                     ----
              UZF ET =   501905514.0936                UZF ET =           0.7250
        UZF RECHARGE =       82566.6621          UZF RECHARGE =           0.1066

            IN - OUT =    60198500.2318              IN - OUT =           3.5759

          STORAGE:                                 STORAGE:
          --------                                 --------
      STORAGE CHANGE =    60199195.1808        STORAGE CHANGE =           3.5759

 PERCENT DISCREPANCY IS DIFFERENCE BETWEEN IN-OUT MINUS CHANGE IN STORAGE
 DIVIDED BY THE AVERAGE OF IN AND OUT TIMES 100

 PERCENT DISCREPANCY =          -0.00     PERCENT DISCREPANCY =           0.00






1
  VOLUMETRIC BUDGET FOR ENTIRE MODEL AT END OF TIME STEP   30, STRESS PERIOD  15
  ------------------------------------------------------------------------------

     CUMULATIVE VOLUMES      L**3       RATES FOR THIS TIME STEP      L**3/T
     ------------------                 ------------------------

           IN:                                      IN:
           ---                                      ---
               AG WELLS  =   399829152.0000                 AG WELLS  =           0.0000
      DIVERSION SEGMENTS =           0.0000        DIVERSION SEGMENTS =           0.0000
           GW IRRIGATION =           0.0000             GW IRRIGATION =           0.0000
           SW IRRIGATION =           0.0000             SW IRRIGATION =           0.0000
        SYSTEM LOSSES GW =           0.0000          SYSTEM LOSSES GW =           0.0000
        SYSTEM LOSSES SW =           0.0000          SYSTEM LOSSES SW =           0.0000

                TOTAL IN =   399829152.0000                  TOTAL IN =           0.0000

          OUT:                                     OUT:
          ----                                     ----
               AG WELLS  =           0.0000                 AG WELLS  =           0.0000
      DIVERSION SEGMENTS =           0.0000        DIVERSION SEGMENTS =           0.0000
           GW IRRIGATION =   399829152.0000             GW IRRIGATION =           0.0000
           SW IRRIGATION =           0.0000             SW IRRIGATION =           0.0000
        SYSTEM LOSSES GW =           0.0000          SYSTEM LOSSES GW =           0.0000
        SYSTEM LOSSES SW =           0.0000          SYSTEM LOSSES SW =           0.0000

               TOTAL OUT =   399829152.0000                 TOTAL OUT =           0.0000

                IN - OUT =           0.0000                  IN - OUT =           0.0000

     PERCENT DISCREPANCY =           0.00         PERCENT DISCREPANCY =           0.00



1
  VOLUMETRIC BUDGET FOR ENTIRE MODEL AT END OF TIME STEP   30, STRESS PERIOD  15
  ------------------------------------------------------------------------------

     CUMULATIVE VOLUMES      L**3       RATES FOR THIS TIME STEP      L**3/T
     ------------------                 ------------------------

           IN:                                      IN:
           ---                                      ---
             STORAGE     =   561961856.0000               STORAGE     =           3.9853
       CONSTANT HEAD     =           0.0000         CONSTANT HEAD     =           0.0000
     HEAD DEP BOUNDS     =    10533724.0000       HEAD DEP BOUNDS     =           0.2853
      STREAM LEAKAGE     =   454489440.0000        STREAM LEAKAGE     =          14.2561
        UZF RECHARGE     =       82566.6172          UZF RECHARGE     =           0.1066
               GW ET     =           0.0000                 GW ET     =           0.0000
     SURFACE LEAKAGE     =           0.0000       SURFACE LEAKAGE     =           0.0000
           AG WELLS      =           0.0000             AG WELLS      =           0.0000

                TOTAL IN =  1027067520.0000                  TOTAL IN =          18.6333

          OUT:                                     OUT:
          ----                                     ----
             STORAGE     =   217465232.0000               STORAGE     =          13.0249
       CONSTANT HEAD     =           0.0000         CONSTANT HEAD     =           0.0000
     HEAD DEP BOUNDS     =    10850580.0000       HEAD DEP BOUNDS     =           0.2906
      STREAM LEAKAGE     =   385341216.0000        STREAM LEAKAGE     =           5.3179
        UZF RECHARGE     =           0.0000          UZF RECHARGE     =           0.0000
               GW ET     =    13586479.0000                 GW ET     =           0.0000
     SURFACE LEAKAGE     =           0.0000       SURFACE LEAKAGE     =           0.0000
           AG WELLS      =   399829152.0000             AG WELLS      =           0.0000

               TOTAL OUT =  1027072640.0000                 TOTAL OUT =          18.6334

                IN - OUT =       -5120.0000                  IN - OUT =      -9.1553E-05

     PERCENT DISCREPANCY =          -0.00         PERCENT DISCREPANCY =          -0.00






         TIME SUMMARY AT END OF TIME STEP   30 IN STRESS PERIOD   15
                    SECONDS     MINUTES      HOURS       DAYS        YEARS
                    -----------------------------------------------------------
   TIME STEP LENGTH  87667.      1461.1      24.352      1.0147     2.77799E-03
 STRESS PERIOD TIME 2.63000E+06  43833.      730.56      30.440     8.33397E-02
         TOTAL TIME 3.69063E+07 6.15106E+05  10252.      427.16      1.1695    
1
1
                            STRESS PERIOD NO.   16, LENGTH =   2630000.    
                            -----------------------------------------------

                              NUMBER OF TIME STEPS =    30

                               MULTIPLIER FOR DELT =     1.000

                            INITIAL TIME STEP SIZE =   87666.66    

 REUSING NON-PARAMETER GHB CELLS FROM LAST STRESS PERIOD

      2 GHB CELLS

 REUSING STREAM SEGMENT DATA FROM LAST STRESS PERIOD



            AREAL INFILTRATION RATE
 READING ON UNIT   19 WITH FORMAT: (10F4.0)            

            1           2           3           4           5           6           7           8           9          10
 ........................................................................................................................
   1   1.2000E-09   0.000       0.000       0.000       0.000       0.000       0.000       0.000       0.000       0.000    
   2   2.1000E-09  2.0000E-09  8.0000E-10  8.5000E-09   0.000       0.000       0.000       0.000       0.000       0.000    
   3   5.0000E-10  1.1000E-09  8.8000E-09  5.5000E-09   0.000       0.000       0.000       0.000       0.000       0.000    
   4   8.5000E-09  1.1000E-09  1.1000E-09  1.1000E-09  2.0000E-09   0.000       0.000       0.000       0.000       0.000    
   5   8.5000E-09  1.1000E-09  1.1000E-09  1.1000E-09  1.1000E-09   0.000       0.000       0.000       0.000       0.000    
   6   8.5000E-09  5.2000E-09  2.1000E-09  1.1000E-09  1.5000E-09   0.000       0.000       0.000       0.000       0.000    
   7   8.5000E-09  5.2000E-09  2.1000E-09  1.2000E-09  2.0000E-09   0.000       0.000       0.000       0.000       0.000    
   8   5.0000E-10  5.2000E-09  2.1000E-09  1.2000E-09  5.0000E-09   0.000       0.000       0.000       0.000       0.000    
   9   5.0000E-10  5.2000E-09  2.1000E-09  1.2000E-09  5.0000E-09   0.000       0.000       0.000       0.000       0.000    
  10   5.0000E-10  5.2000E-09  2.1000E-09  1.2000E-09  5.8000E-09   0.000       0.000       0.000       0.000       0.000    
  11   1.0000E-10  1.1000E-09  1.1000E-09  1.2000E-09  5.0000E-09   0.000       0.000       0.000       0.000       0.000    
  12   1.1000E-09  1.1000E-09  1.1000E-09  1.1000E-09  2.0000E-09   0.000       0.000       0.000       0.000       0.000    
  13   1.1000E-09  2.2000E-09  2.2000E-09  2.1000E-09  1.0000E-09   0.000       0.000       0.000       0.000       0.000    
  14   2.0000E-10  5.5000E-09  5.5000E-09  5.2000E-09  1.0000E-09   0.000       0.000       0.000       0.000       0.000    
  15    0.000      8.8000E-09  8.8000E-09   0.000       0.000       0.000       0.000       0.000       0.000       0.000    

                  ET RATE =  5.000000E-10

 USING ET EXTINCTION DEPTH FROM PREVIOUS STRESS PERIOD. CURRENT PERIOD IS:      16

 USING EXTINCTION WATER CONTENT FROM PREVIOUS STRESS PERIOD. CURRENT PERIOD IS:      16

 USING AIR ENTRY PRESSURE FROM PREVIOUS STRESS PERIOD. CURRENT PERIOD IS:      16

 USING ROOT PRESSURE HEAD FROM PREVIOUS STRESS PERIOD. CURRENT PERIOD IS:      16

 USING ROOT ACTIVITY FROM PREVIOUS STRESS PERIOD. CURRENT PERIOD IS:      16

 PROCESSING AG STRESS PERIOD DATA

 READING AG STRESS PERIOD DATA

 READING IRRIGATION WELL

 END PROCESSING AG STRESS PERIOD DATA OPTIONS
 
 SOLVING FOR HEAD 
                                                   Max.-Head-Change                         Max.-Flux-Residual
  Residual-Control   Outer-Iter.   Inner-Iter.     Column Row Layer    Maximum-Head-Change  Column Row Layer    Maximum-Flux-Residual          L2-NORM 
          0                 1           2             4   13     1       0.2655556765E-01       4   13    1         0.1537240477E+01      0.3214333060E+01
          0                 2           2             3   13     1       0.3212132211E-02       3   13    1         0.1893969330E+00      0.3397581071E+00
          0                 3           2             3   13     1       0.4046213703E-03       3   13    1         0.2334548636E-01      0.3050627378E-01
          0                 4           1             3   13     1       0.5192541614E-04       3   13    1         0.3025727845E-02      0.3113594343E-02

    ------------------------------------------------
       NWT REQUIRED            4 OUTER ITERATIONS 
       AND A TOTAL OF          7 INNER ITERATIONS.
    ------------------------------------------------

 NO OUTPUT CONTROL FOR STRESS PERIOD   16   TIME STEP    1
 
 SOLVING FOR HEAD 
                                                   Max.-Head-Change                         Max.-Flux-Residual
  Residual-Control   Outer-Iter.   Inner-Iter.     Column Row Layer    Maximum-Head-Change  Column Row Layer    Maximum-Flux-Residual          L2-NORM 
          0                 1           2             2   13     1       0.2431417795E-01       4   13    1         0.1383715417E+01      0.2998552928E+01
          0                 2           2             3   13     1       0.2849455328E-02       3   13    1         0.1680905472E+00      0.3152841750E+00
          0                 3           2             3   13     1       0.3599884363E-03       3   13    1         0.2076612056E-01      0.2785802683E-01
          0                 4           1             3   13     1       0.4634867971E-04       3   13    1         0.2701012636E-02      0.2790196499E-02

    ------------------------------------------------
       NWT REQUIRED            4 OUTER ITERATIONS 
       AND A TOTAL OF          7 INNER ITERATIONS.
    ------------------------------------------------

 NO OUTPUT CONTROL FOR STRESS PERIOD   16   TIME STEP    2
 
 SOLVING FOR HEAD 
                                                   Max.-Head-Change                         Max.-Flux-Residual
  Residual-Control   Outer-Iter.   Inner-Iter.     Column Row Layer    Maximum-Head-Change  Column Row Layer    Maximum-Flux-Residual          L2-NORM 
          0                 1           2             2   13     1       0.2237335638E-01       2   13    1         0.1270589365E+01      0.2809213684E+01
          0                 2           2             3   13     1       0.2552724546E-02       3   13    1         0.1493972717E+00      0.2668461913E+00
          0                 3           2             3   13     1       0.3274737598E-03       3   13    1         0.1896780493E-01      0.2455887317E-01
          0                 4           1             3   13     1       0.4206516305E-04       3   13    1         0.2447379633E-02      0.2521127848E-02

    ------------------------------------------------
       NWT REQUIRED            4 OUTER ITERATIONS 
       AND A TOTAL OF          7 INNER ITERATIONS.
    ------------------------------------------------

 NO OUTPUT CONTROL FOR STRESS PERIOD   16   TIME STEP    3
 
 SOLVING FOR HEAD 
                                                   Max.-Head-Change                         Max.-Flux-Residual
  Residual-Control   Outer-Iter.   Inner-Iter.     Column Row Layer    Maximum-Head-Change  Column Row Layer    Maximum-Flux-Residual          L2-NORM 
          0                 1           2             2   13     1       0.2058431596E-01       2   13    1         0.1169138542E+01      0.2654689538E+01
          0                 2           2             4   13     1       0.2504295920E-02       4   13    1         0.1454367062E+00      0.2908976892E+00
          0                 3           2             4   13     1       0.3169347268E-03       4   13    1         0.1834399865E-01      0.2960307894E-01
          0                 4           1             3   13     1       0.4056293247E-04       3   13    1         0.2337729280E-02      0.3347024466E-02

    ------------------------------------------------
       NWT REQUIRED            4 OUTER ITERATIONS 
       AND A TOTAL OF          7 INNER ITERATIONS.
    ------------------------------------------------

 NO OUTPUT CONTROL FOR STRESS PERIOD   16   TIME STEP    4
 
 SOLVING FOR HEAD 
                                                   Max.-Head-Change                         Max.-Flux-Residual
  Residual-Control   Outer-Iter.   Inner-Iter.     Column Row Layer    Maximum-Head-Change  Column Row Layer    Maximum-Flux-Residual          L2-NORM 
          0                 1           2             2   13     1       0.1893912411E-01       2   13    1         0.1075799905E+01      0.2495853746E+01
          0                 2           2             4   13     1       0.2193688361E-02       4   13    1         0.1274408557E+00      0.2709142950E+00
          0                 3           2             4   13     1       0.2786135834E-03       4   13    1         0.1611912733E-01      0.2686318204E-01
          0                 4           1             3   13     1       0.3614102275E-04       3   13    1         0.2083335425E-02      0.2976917527E-02

    ------------------------------------------------
       NWT REQUIRED            4 OUTER ITERATIONS 
       AND A TOTAL OF          7 INNER ITERATIONS.
    ------------------------------------------------

 NO OUTPUT CONTROL FOR STRESS PERIOD   16   TIME STEP    5
 
 SOLVING FOR HEAD 
                                                   Max.-Head-Change                         Max.-Flux-Residual
  Residual-Control   Outer-Iter.   Inner-Iter.     Column Row Layer    Maximum-Head-Change  Column Row Layer    Maximum-Flux-Residual          L2-NORM 
          0                 1           2             2   13     1       0.1741969033E-01       2   13    1         0.9895684466E+00      0.2359246140E+01
          0                 2           2             4   13     1       0.1922825194E-02       4   13    1         0.1117487600E+00      0.2536642613E+00
          0                 3           2             4   13     1       0.2442878066E-03       4   13    1         0.1412667318E-01      0.2446409811E-01
          0                 4           1             3   13     1       0.3228474741E-04       3   13    1         0.1861373208E-02      0.2646600427E-02

    ------------------------------------------------
       NWT REQUIRED            4 OUTER ITERATIONS 
       AND A TOTAL OF          7 INNER ITERATIONS.
    ------------------------------------------------

 NO OUTPUT CONTROL FOR STRESS PERIOD   16   TIME STEP    6
 
 SOLVING FOR HEAD 
                                                   Max.-Head-Change                         Max.-Flux-Residual
  Residual-Control   Outer-Iter.   Inner-Iter.     Column Row Layer    Maximum-Head-Change  Column Row Layer    Maximum-Flux-Residual          L2-NORM 
          0                 1           2             2   13     1       0.1601738666E-01       2   13    1         0.9099612480E+00      0.2241656328E+01
          0                 2           2             4   13     1       0.1686999227E-02       4   13    1         0.9808688738E-01      0.2388280020E+00
          0                 3           2             3   13     1       0.2157964804E-03       4   13    1         0.1242912967E-01      0.2238621993E-01
          0                 4           1             3   13     1       0.2870365386E-04       3   13    1         0.1655146320E-02      0.2355901579E-02

    ------------------------------------------------
       NWT REQUIRED            4 OUTER ITERATIONS 
       AND A TOTAL OF          7 INNER ITERATIONS.
    ------------------------------------------------

 NO OUTPUT CONTROL FOR STRESS PERIOD   16   TIME STEP    7
 
 SOLVING FOR HEAD 
                                                   Max.-Head-Change                         Max.-Flux-Residual
  Residual-Control   Outer-Iter.   Inner-Iter.     Column Row Layer    Maximum-Head-Change  Column Row Layer    Maximum-Flux-Residual          L2-NORM 
          0                 1           2             2   13     1       0.1472412774E-01       2   13    1         0.8365249219E+00      0.2140324820E+01
          0                 2           2             4   13     1       0.1478135570E-02       4   13    1         0.8598346594E-01      0.2260664187E+00
          0                 3           2             3   13     1       0.1926705206E-03       3   13    1         0.1104524665E-01      0.2060702932E-01
          0                 4           1             3   13     1       0.2565981297E-04       3   13    1         0.1479941920E-02      0.2104816138E-02

    ------------------------------------------------
       NWT REQUIRED            4 OUTER ITERATIONS 
       AND A TOTAL OF          7 INNER ITERATIONS.
    ------------------------------------------------

 NO OUTPUT CONTROL FOR STRESS PERIOD   16   TIME STEP    8
 
 SOLVING FOR HEAD 
                                                   Max.-Head-Change                         Max.-Flux-Residual
  Residual-Control   Outer-Iter.   Inner-Iter.     Column Row Layer    Maximum-Head-Change  Column Row Layer    Maximum-Flux-Residual          L2-NORM 
          0                 1           2             2   13     1       0.1353222089E-01       2   13    1         0.7688278309E+00      0.2052833016E+01
          0                 2           2             4   13     1       0.1298111114E-02       4   13    1         0.7555362398E-01      0.2150947323E+00
          0                 3           2             3   13     1       0.1711200159E-03       3   13    1         0.9808767281E-02      0.1903768244E-01
          0                 4           1             3   13     1       0.2276426266E-04       3   13    1         0.1313177219E-02      0.1871588411E-02

    ------------------------------------------------
       NWT REQUIRED            4 OUTER ITERATIONS 
       AND A TOTAL OF          7 INNER ITERATIONS.
    ------------------------------------------------

 NO OUTPUT CONTROL FOR STRESS PERIOD   16   TIME STEP    9
 
 SOLVING FOR HEAD 
                                                   Max.-Head-Change                         Max.-Flux-Residual
  Residual-Control   Outer-Iter.   Inner-Iter.     Column Row Layer    Maximum-Head-Change  Column Row Layer    Maximum-Flux-Residual          L2-NORM 
          0                 1           2             2   13     1       0.1243415701E-01       2   13    1         0.7064472143E+00      0.1977104064E+01
          0                 2           2             2   13     1      -0.1146585797E-02       2   13    1        -0.6790468929E-01      0.2056619635E+00
          0                 3           2             3   13     1       0.1526807368E-03       3   13    1         0.8751162346E-02      0.1771867427E-01
          0                 4           1             3   13     1       0.2031433333E-04       3   13    1         0.1172070659E-02      0.1675986702E-02

    ------------------------------------------------
       NWT REQUIRED            4 OUTER ITERATIONS 
       AND A TOTAL OF          7 INNER ITERATIONS.
    ------------------------------------------------

 NO OUTPUT CONTROL FOR STRESS PERIOD   16   TIME STEP   10
 
 SOLVING FOR HEAD 
                                                   Max.-Head-Change                         Max.-Flux-Residual
  Residual-Control   Outer-Iter.   Inner-Iter.     Column Row Layer    Maximum-Head-Change  Column Row Layer    Maximum-Flux-Residual          L2-NORM 
          0                 1           2             2   13     1       0.1142333081E-01       2   13    1         0.6490117686E+00      0.1911347189E+01
          0                 2           2             2   13     1      -0.1055021931E-02       2   13    1        -0.6245384626E-01      0.1975875536E+00
          0                 3           2             3   13     1       0.1357145373E-03       3   13    1         0.7777602326E-02      0.1657085347E-01
          0                 4           1             3   13     1       0.1806513374E-04       3   13    1         0.1042479891E-02      0.1498777674E-02

    ------------------------------------------------
       NWT REQUIRED            4 OUTER ITERATIONS 
       AND A TOTAL OF          7 INNER ITERATIONS.
    ------------------------------------------------

 NO OUTPUT CONTROL FOR STRESS PERIOD   16   TIME STEP   11
 
 SOLVING FOR HEAD 
                                                   Max.-Head-Change                         Max.-Flux-Residual
  Residual-Control   Outer-Iter.   Inner-Iter.     Column Row Layer    Maximum-Head-Change  Column Row Layer    Maximum-Flux-Residual          L2-NORM 
          0                 1           2             4    7     1       0.1059423337E-01       2   13    1         0.5961466681E+00      0.1854036841E+01
          0                 2           2             4    7     1      -0.1030532138E-02       2   13    1        -0.5742500455E-01      0.1905662822E+00
          0                 3           2             3   13     1       0.1205368646E-03       3   13    1         0.6906701985E-02      0.1558288130E-01
          0                 4           1             3   13     1       0.1603917101E-04       3   13    1         0.9257515512E-03      0.1341539853E-02

    ------------------------------------------------
       NWT REQUIRED            4 OUTER ITERATIONS 
       AND A TOTAL OF          7 INNER ITERATIONS.
    ------------------------------------------------

 NO OUTPUT CONTROL FOR STRESS PERIOD   16   TIME STEP   12
 
 SOLVING FOR HEAD 
                                                   Max.-Head-Change                         Max.-Flux-Residual
  Residual-Control   Outer-Iter.   Inner-Iter.     Column Row Layer    Maximum-Head-Change  Column Row Layer    Maximum-Flux-Residual          L2-NORM 
          0                 1           2             4    7     1       0.1050770748E-01       4    7    1         0.5504677154E+00      0.1803876731E+01
          0                 2           2             4    7     1      -0.1022115484E-02       4    7    1        -0.5504691128E-01      0.1845152739E+00
          0                 3           1             3   13     1       0.1074692319E-03       3   13    1         0.6156938883E-02      0.1476131888E-01
          0                 4           1             3   13     1       0.1430628315E-04       3   13    1         0.8258688504E-03      0.1210426124E-02

    ------------------------------------------------
       NWT REQUIRED            4 OUTER ITERATIONS 
       AND A TOTAL OF          6 INNER ITERATIONS.
    ------------------------------------------------

 NO OUTPUT CONTROL FOR STRESS PERIOD   16   TIME STEP   13
 
 SOLVING FOR HEAD 
                                                   Max.-Head-Change                         Max.-Flux-Residual
  Residual-Control   Outer-Iter.   Inner-Iter.     Column Row Layer    Maximum-Head-Change  Column Row Layer    Maximum-Flux-Residual          L2-NORM 
          0                 1           2             4    7     1       0.1042251808E-01       4    7    1         0.5459740687E+00      0.1759753671E+01
          0                 2           2             4    7     1      -0.1013828834E-02       4    7    1        -0.5459754371E-01      0.1793110725E+00
          0                 3           1             3   13     1       0.9567569672E-04       3   13    1         0.5480160401E-02      0.1405651680E-01

    ------------------------------------------------
       NWT REQUIRED            3 OUTER ITERATIONS 
       AND A TOTAL OF          5 INNER ITERATIONS.
    ------------------------------------------------

 NO OUTPUT CONTROL FOR STRESS PERIOD   16   TIME STEP   14
 
 SOLVING FOR HEAD 
                                                   Max.-Head-Change                         Max.-Flux-Residual
  Residual-Control   Outer-Iter.   Inner-Iter.     Column Row Layer    Maximum-Head-Change  Column Row Layer    Maximum-Flux-Residual          L2-NORM 
          0                 1           2             4    7     1       0.1033845638E-01       4    7    1         0.5415407315E+00      0.1720763286E+01
          0                 2           2             4    7     1      -0.1005651882E-02       4    7    1        -0.5415420716E-01      0.1747256786E+00
          0                 3           1             3   13     1       0.8514093417E-04       3   13    1         0.4875691452E-02      0.1345113398E-01

    ------------------------------------------------
       NWT REQUIRED            3 OUTER ITERATIONS 
       AND A TOTAL OF          5 INNER ITERATIONS.
    ------------------------------------------------

 NO OUTPUT CONTROL FOR STRESS PERIOD   16   TIME STEP   15
 
 SOLVING FOR HEAD 
                                                   Max.-Head-Change                         Max.-Flux-Residual
  Residual-Control   Outer-Iter.   Inner-Iter.     Column Row Layer    Maximum-Head-Change  Column Row Layer    Maximum-Flux-Residual          L2-NORM 
          0                 1           2             4    7     1       0.1025566101E-01       4    7    1         0.5371748717E+00      0.1686108440E+01
          0                 2           2             4    7     1      -0.9975981095E-03       4    7    1        -0.5371761841E-01      0.1707150378E+00
          0                 3           1             3   13     1       0.7578905941E-04       3   13    1         0.4339068615E-02      0.1293716219E-01

    ------------------------------------------------
       NWT REQUIRED            3 OUTER ITERATIONS 
       AND A TOTAL OF          5 INNER ITERATIONS.
    ------------------------------------------------

 NO OUTPUT CONTROL FOR STRESS PERIOD   16   TIME STEP   16
 
 SOLVING FOR HEAD 
                                                   Max.-Head-Change                         Max.-Flux-Residual
  Residual-Control   Outer-Iter.   Inner-Iter.     Column Row Layer    Maximum-Head-Change  Column Row Layer    Maximum-Flux-Residual          L2-NORM 
          0                 1           2             4    7     1       0.1017409554E-01       4    7    1         0.5328746687E+00      0.1655131874E+01
          0                 2           2             4    7     1      -0.9896639732E-03       4    7    1        -0.5328759544E-01      0.1671830977E+00
          0                 3           1             3   13     1       0.6751309170E-04       3   13    1         0.3864217080E-02      0.1249883165E-01

    ------------------------------------------------
       NWT REQUIRED            3 OUTER ITERATIONS 
       AND A TOTAL OF          5 INNER ITERATIONS.
    ------------------------------------------------

 NO OUTPUT CONTROL FOR STRESS PERIOD   16   TIME STEP   17
 
 SOLVING FOR HEAD 
                                                   Max.-Head-Change                         Max.-Flux-Residual
  Residual-Control   Outer-Iter.   Inner-Iter.     Column Row Layer    Maximum-Head-Change  Column Row Layer    Maximum-Flux-Residual          L2-NORM 
          0                 1           2             4    7     1       0.1009359249E-01       4    7    1         0.5286308643E+00      0.1627277230E+01
          0                 2           2             4    7     1      -0.9818331831E-03       4    7    1        -0.5286321239E-01      0.1640529189E+00
          0                 3           1             4    7     1       0.6685918098E-04       4    7    1         0.3700425283E-02      0.1212651144E-01

    ------------------------------------------------
       NWT REQUIRED            3 OUTER ITERATIONS 
       AND A TOTAL OF          5 INNER ITERATIONS.
    ------------------------------------------------

 NO OUTPUT CONTROL FOR STRESS PERIOD   16   TIME STEP   18
 
 SOLVING FOR HEAD 
                                                   Max.-Head-Change                         Max.-Flux-Residual
  Residual-Control   Outer-Iter.   Inner-Iter.     Column Row Layer    Maximum-Head-Change  Column Row Layer    Maximum-Flux-Residual          L2-NORM 
          0                 1           2             4    7     1       0.1001439357E-01       4    7    1         0.5244568838E+00      0.1602090796E+01
          0                 2           2             4    7     1      -0.9741292507E-03       4    7    1        -0.5244581182E-01      0.1612616849E+00
          0                 3           1             4    7     1       0.6633457219E-04       4    7    1         0.3671207239E-02      0.1180764736E-01

    ------------------------------------------------
       NWT REQUIRED            3 OUTER ITERATIONS 
       AND A TOTAL OF          5 INNER ITERATIONS.
    ------------------------------------------------

 NO OUTPUT CONTROL FOR STRESS PERIOD   16   TIME STEP   19
 
 SOLVING FOR HEAD 
                                                   Max.-Head-Change                         Max.-Flux-Residual
  Residual-Control   Outer-Iter.   Inner-Iter.     Column Row Layer    Maximum-Head-Change  Column Row Layer    Maximum-Flux-Residual          L2-NORM 
          0                 1           2             4    7     1       0.9936190900E-02       4    7    1         0.5203357814E+00      0.1579178114E+01
          0                 2           2             4    7     1      -0.9665222269E-03       4    7    1        -0.5203369911E-01      0.1587676433E+00
          0                 3           1             4    7     1       0.6581656291E-04       4    7    1         0.3642359374E-02      0.1153841165E-01

    ------------------------------------------------
       NWT REQUIRED            3 OUTER ITERATIONS 
       AND A TOTAL OF          5 INNER ITERATIONS.
    ------------------------------------------------

 NO OUTPUT CONTROL FOR STRESS PERIOD   16   TIME STEP   20
 
 SOLVING FOR HEAD 
                                                   Max.-Head-Change                         Max.-Flux-Residual
  Residual-Control   Outer-Iter.   Inner-Iter.     Column Row Layer    Maximum-Head-Change  Column Row Layer    Maximum-Flux-Residual          L2-NORM 
          0                 1           2             4    7     1       0.9859096624E-02       4    7    1         0.5162737022E+00      0.1558222244E+01
          0                 2           2             4    7     1      -0.9590230209E-03       4    7    1        -0.5162748882E-01      0.1565037760E+00
          0                 3           1             4    7     1       0.6530589512E-04       4    7    1         0.3613924654E-02      0.1129929037E-01

    ------------------------------------------------
       NWT REQUIRED            3 OUTER ITERATIONS 
       AND A TOTAL OF          5 INNER ITERATIONS.
    ------------------------------------------------

 NO OUTPUT CONTROL FOR STRESS PERIOD   16   TIME STEP   21
 
 SOLVING FOR HEAD 
                                                   Max.-Head-Change                         Max.-Flux-Residual
  Residual-Control   Outer-Iter.   Inner-Iter.     Column Row Layer    Maximum-Head-Change  Column Row Layer    Maximum-Flux-Residual          L2-NORM 
          0                 1           2             4    7     1       0.9783080160E-02       4    7    1         0.5122690916E+00      0.1538942415E+01
          0                 2           2             4    7     1      -0.9516286574E-03       4    7    1        -0.5122702544E-01      0.1544588211E+00
          0                 3           1             4    7     1       0.6480236706E-04       4    7    1         0.3585892226E-02      0.1109061060E-01

    ------------------------------------------------
       NWT REQUIRED            3 OUTER ITERATIONS 
       AND A TOTAL OF          5 INNER ITERATIONS.
    ------------------------------------------------

 NO OUTPUT CONTROL FOR STRESS PERIOD   16   TIME STEP   22
 
 SOLVING FOR HEAD 
                                                   Max.-Head-Change                         Max.-Flux-Residual
  Residual-Control   Outer-Iter.   Inner-Iter.     Column Row Layer    Maximum-Head-Change  Column Row Layer    Maximum-Flux-Residual          L2-NORM 
          0                 1           2             4    7     1       0.9707981751E-02       4    7    1         0.5083129935E+00      0.1521112044E+01
          0                 2           2             4    7     1      -0.9443235964E-03       4    7    1        -0.5083141336E-01      0.1525476110E+00
          0                 3           1             4    7     1       0.6430491984E-04       4    7    1         0.3558199396E-02      0.1090462330E-01

    ------------------------------------------------
       NWT REQUIRED            3 OUTER ITERATIONS 
       AND A TOTAL OF          5 INNER ITERATIONS.
    ------------------------------------------------

 NO OUTPUT CONTROL FOR STRESS PERIOD   16   TIME STEP   23
 
 SOLVING FOR HEAD 
                                                   Max.-Head-Change                         Max.-Flux-Residual
  Residual-Control   Outer-Iter.   Inner-Iter.     Column Row Layer    Maximum-Head-Change  Column Row Layer    Maximum-Flux-Residual          L2-NORM 
          0                 1           2             4    7     1       0.9634045481E-02       4    7    1         0.5044192356E+00      0.1504494381E+01
          0                 2           2             4    7     1      -0.9371315812E-03       4    7    1        -0.5044203540E-01      0.1507988078E+00
          0                 3           1             4    7     1       0.6381517089E-04       4    7    1         0.3530942947E-02      0.1073952240E-01

    ------------------------------------------------
       NWT REQUIRED            3 OUTER ITERATIONS 
       AND A TOTAL OF          5 INNER ITERATIONS.
    ------------------------------------------------

 NO OUTPUT CONTROL FOR STRESS PERIOD   16   TIME STEP   24
 
 SOLVING FOR HEAD 
                                                   Max.-Head-Change                         Max.-Flux-Residual
  Residual-Control   Outer-Iter.   Inner-Iter.     Column Row Layer    Maximum-Head-Change  Column Row Layer    Maximum-Flux-Residual          L2-NORM 
          0                 1           2             4    7     1       0.9561106318E-02       4    7    1         0.5005783625E+00      0.1488984384E+01
          0                 2           2             4    7     1      -0.9300365577E-03       4    7    1        -0.5005794593E-01      0.1491795237E+00
          0                 3           1             4    7     1       0.6333202655E-04       4    7    1         0.3504056695E-02      0.1059223077E-01

    ------------------------------------------------
       NWT REQUIRED            3 OUTER ITERATIONS 
       AND A TOTAL OF          5 INNER ITERATIONS.
    ------------------------------------------------

 NO OUTPUT CONTROL FOR STRESS PERIOD   16   TIME STEP   25
 
 SOLVING FOR HEAD 
                                                   Max.-Head-Change                         Max.-Flux-Residual
  Residual-Control   Outer-Iter.   Inner-Iter.     Column Row Layer    Maximum-Head-Change  Column Row Layer    Maximum-Flux-Residual          L2-NORM 
          0                 1           2             4    7     1       0.9489002313E-02       4    7    1         0.4967818171E+00      0.1474431181E+01
          0                 2           2             4    7     1      -0.9230227731E-03       4    7    1        -0.4967828932E-01      0.1476699750E+00
          0                 3           1             4    7     1       0.6285441385E-04       4    7    1         0.3477480720E-02      0.1045919323E-01

    ------------------------------------------------
       NWT REQUIRED            3 OUTER ITERATIONS 
       AND A TOTAL OF          5 INNER ITERATIONS.
    ------------------------------------------------

 NO OUTPUT CONTROL FOR STRESS PERIOD   16   TIME STEP   26
 
 SOLVING FOR HEAD 
                                                   Max.-Head-Change                         Max.-Flux-Residual
  Residual-Control   Outer-Iter.   Inner-Iter.     Column Row Layer    Maximum-Head-Change  Column Row Layer    Maximum-Flux-Residual          L2-NORM 
          0                 1           2             4    7     1       0.9417856400E-02       4    7    1         0.4930359438E+00      0.1460726693E+01
          0                 2           2             4    7     1      -0.9161021859E-03       4    7    1        -0.4930369995E-01      0.1462566907E+00
          0                 3           1             4    7     1       0.6238314802E-04       4    7    1         0.3451259490E-02      0.1033860747E-01

    ------------------------------------------------
       NWT REQUIRED            3 OUTER ITERATIONS 
       AND A TOTAL OF          5 INNER ITERATIONS.
    ------------------------------------------------

 NO OUTPUT CONTROL FOR STRESS PERIOD   16   TIME STEP   27
 
 SOLVING FOR HEAD 
                                                   Max.-Head-Change                         Max.-Flux-Residual
  Residual-Control   Outer-Iter.   Inner-Iter.     Column Row Layer    Maximum-Head-Change  Column Row Layer    Maximum-Flux-Residual          L2-NORM 
          0                 1           2             4    7     1       0.9347773492E-02       4    7    1         0.4893471171E+00      0.1447769576E+01
          0                 2           2             4    7     1      -0.9092850011E-03       4    7    1        -0.4893481532E-01      0.1449264551E+00
          0                 3           1             4    7     1       0.6191892369E-04       4    7    1         0.3425437579E-02      0.1022745956E-01

    ------------------------------------------------
       NWT REQUIRED            3 OUTER ITERATIONS 
       AND A TOTAL OF          5 INNER ITERATIONS.
    ------------------------------------------------

 NO OUTPUT CONTROL FOR STRESS PERIOD   16   TIME STEP   28
 
 SOLVING FOR HEAD 
                                                   Max.-Head-Change                         Max.-Flux-Residual
  Residual-Control   Outer-Iter.   Inner-Iter.     Column Row Layer    Maximum-Head-Change  Column Row Layer    Maximum-Flux-Residual          L2-NORM 
          0                 1           2             4    7     1       0.9278460864E-02       4    7    1         0.4856986634E+00      0.1435471528E+01
          0                 2           2             4    7     1      -0.9025427435E-03       4    7    1        -0.4856996803E-01      0.1436695481E+00
          0                 3           1             4    7     1       0.6145980109E-04       4    7    1         0.3399898261E-02      0.1012503727E-01

    ------------------------------------------------
       NWT REQUIRED            3 OUTER ITERATIONS 
       AND A TOTAL OF          5 INNER ITERATIONS.
    ------------------------------------------------

 NO OUTPUT CONTROL FOR STRESS PERIOD   16   TIME STEP   29
 
 SOLVING FOR HEAD 
                                                   Max.-Head-Change                         Max.-Flux-Residual
  Residual-Control   Outer-Iter.   Inner-Iter.     Column Row Layer    Maximum-Head-Change  Column Row Layer    Maximum-Flux-Residual          L2-NORM 
          0                 1           2             4    7     1       0.9209989953E-02       4    7    1         0.4820975186E+00      0.1396062306E+01
          0                 2           2             4    7     1      -0.8958823638E-03       4    7    1        -0.4820985169E-01      0.1405096248E+00
          0                 3           1             4    7     1       0.6100625416E-04       4    7    1         0.3374690136E-02      0.1024073060E-01

    ------------------------------------------------
       NWT REQUIRED            3 OUTER ITERATIONS 
       AND A TOTAL OF          5 INNER ITERATIONS.
    ------------------------------------------------

 NO OUTPUT CONTROL FOR STRESS PERIOD   16   TIME STEP   30



 STREAM LISTING     PERIOD     16   STEP       30

 LAYER ROW COL. STREAM  RCH.  FLOW INTO     FLOW TO   FLOW OUT OF   OVRLND.     DIRECT     STREAM       STREAM     STREAM     STREAM   STREAMBED  STREAMBED
                SEG.NO.  NO.  STRM. RCH.    AQUIFER    STRM. RCH.    RUNOFF     PRECIP       ET          HEAD       DEPTH      WIDTH   CONDCTNC.   GRADIENT

   1    1    1     1     1    8.8455E+01  4.5169E-01   8.8003E+01  0.000E+00  0.000E+00  0.000E+00  1.09480E+03  1.756E+00  2.111E+01  9.498E-02  1.585E+00
   1    2    2     1     2    8.8003E+01  7.0076E-01   8.7302E+01  0.000E+00  0.000E+00  0.000E+00  1.08981E+03  1.753E+00  2.106E+01  1.474E-01  1.584E+00
   1    3    3     1     3    8.7302E+01  5.9885E-01   8.6704E+01  0.000E+00  0.000E+00  0.000E+00  1.08417E+03  1.751E+00  2.101E+01  1.260E-01  1.584E+00
   1    3    4     1     4    8.6704E+01  5.5245E-01   8.6151E+01  0.000E+00  0.000E+00  0.000E+00  1.07916E+03  1.749E+00  2.096E+01  1.163E-01  1.583E+00
   1    4    5     2     1    8.4151E+01  4.2881E-01   8.3722E+01  0.000E+00  0.000E+00  0.000E+00  1.07443E+03  2.498E+00  1.200E+01  7.800E-02  1.833E+00
   1    5    6     2     2    8.3722E+01  3.2945E-01   8.3393E+01  0.000E+00  0.000E+00  0.000E+00  1.06900E+03  2.491E+00  1.200E+01  6.000E-02  1.830E+00
   1    6    6     2     3    8.3393E+01  3.2909E-01   8.3064E+01  0.000E+00  0.000E+00  0.000E+00  1.06428E+03  2.485E+00  1.200E+01  6.000E-02  1.828E+00
   1    7    6     2     4    8.3064E+01  3.2874E-01   8.2735E+01  0.000E+00  0.000E+00  0.000E+00  1.05955E+03  2.479E+00  1.200E+01  6.000E-02  1.826E+00
   1    8    6     2     5    8.2735E+01  3.2839E-01   8.2407E+01  0.000E+00  0.000E+00  0.000E+00  1.05483E+03  2.473E+00  1.200E+01  6.000E-02  1.824E+00
   1    3    5     3     1    2.0000E+00  2.8252E-01   1.7175E+00  0.000E+00  0.000E+00  0.000E+00  1.07555E+03  1.909E+00  9.636E+00  7.227E-02  1.955E+00
   1    3    6     3     2    1.7175E+00  2.4905E-01   1.4684E+00  0.000E+00  0.000E+00  0.000E+00  1.07264E+03  1.727E+00  8.909E+00  6.682E-02  1.864E+00
   1    3    7     3     3    1.4684E+00  1.9718E-01   1.2712E+00  0.000E+00  0.000E+00  0.000E+00  1.06987E+03  1.555E+00  8.218E+00  5.547E-02  1.777E+00
   1    4    8     3     4    1.2712E+00  2.2567E-01   1.0456E+00  0.000E+00  0.000E+00  0.000E+00  1.06682E+03  1.364E+00  7.455E+00  6.709E-02  1.682E+00
   1    5    8     3     5    1.0456E+00  1.5790E-01   8.8768E-01  0.000E+00  0.000E+00  0.000E+00  1.06362E+03  1.164E+00  6.655E+00  4.991E-02  1.582E+00
   1    6    8     3     6    8.8768E-01  5.5980E-02   8.3170E-01  0.000E+00  0.000E+00  0.000E+00  1.06158E+03  1.036E+00  6.145E+00  1.844E-02  1.518E+00
   1    5   10     4     1    1.0000E+01  9.0919E-02   9.9091E+00  0.000E+00  0.000E+00  0.000E+00  1.07836E+03  6.368E-01  1.000E+01  2.500E-02  1.212E+00
   1    5    9     4     2    9.9091E+00  1.8158E-01   9.7275E+00  0.000E+00  0.000E+00  0.000E+00  1.07154E+03  6.315E-01  1.000E+01  5.000E-02  1.211E+00
   1    6    8     4     3    9.7275E+00  1.2689E-01   9.6006E+00  0.000E+00  0.000E+00  0.000E+00  1.06381E+03  6.256E-01  1.000E+01  3.500E-02  1.209E+00
   1    6    8     5     1    1.0432E+01  2.2686E-01   1.0205E+01  0.000E+00  0.000E+00  0.000E+00  1.05868E+03  6.790E-01  1.542E+01  6.166E-02  1.226E+00
   1    7    7     5     2    1.0205E+01  2.7894E-01   9.9265E+00  0.000E+00  0.000E+00  0.000E+00  1.05417E+03  6.732E-01  1.519E+01  7.594E-02  1.224E+00
   1    8    7     5     3    9.9265E+00  1.9221E-01   9.7343E+00  0.000E+00  0.000E+00  0.000E+00  1.04992E+03  6.676E-01  1.497E+01  5.241E-02  1.223E+00
   1    8    6     5     4    9.7343E+00  1.3577E-01   9.5985E+00  0.000E+00  0.000E+00  0.000E+00  1.04691E+03  6.637E-01  1.482E+01  3.706E-02  1.221E+00
   1    9    6     6     1    9.2005E+01  3.3993E-01   9.1665E+01  0.000E+00  0.000E+00  0.000E+00  1.04539E+03  2.665E+00  1.200E+01  6.000E-02  1.888E+00
   1   10    7     6     2    9.1665E+01  3.3957E-01   9.1326E+01  0.000E+00  0.000E+00  0.000E+00  1.04084E+03  2.660E+00  1.200E+01  6.000E-02  1.887E+00
   1   11    7     6     3    9.1326E+01  3.3922E-01   9.0986E+01  0.000E+00  0.000E+00  0.000E+00  1.03629E+03  2.654E+00  1.200E+01  6.000E-02  1.885E+00
   1   12    7     6     4    9.0986E+01  3.3886E-01   9.0648E+01  0.000E+00  0.000E+00  0.000E+00  1.03174E+03  2.648E+00  1.200E+01  6.000E-02  1.883E+00
   1   13    7     6     5    9.0648E+01  3.4385E-02   9.0613E+01  0.000E+00  0.000E+00  0.000E+00  1.02855E+03  2.644E+00  1.200E+01  2.400E-02  4.776E-01
   1   14    9     7     1    1.5000E+02  1.3298E+00   1.4867E+02  0.000E+00  0.000E+00  0.000E+00  1.03987E+03  2.288E+00  5.529E+01  5.593E-01  7.926E-01
   1   13    8     7     2    1.4867E+02  1.8167E+00   1.4685E+02  0.000E+00  0.000E+00  0.000E+00  1.03478E+03  2.279E+00  5.526E+01  6.148E-01  9.850E-01
   1   13    7     7     3    1.4685E+02  1.4348E+00   1.4542E+02  0.000E+00  0.000E+00  0.000E+00  1.02969E+03  2.271E+00  5.522E+01  5.585E-01  8.564E-01
   1   13    6     8     1    2.3603E+02  1.1595E+00   2.3487E+02  0.000E+00  0.000E+00  0.000E+00  1.02521E+03  3.336E+00  4.837E+01  4.929E-01  7.842E-01
   1   13    5     8     2    2.3487E+02  3.1852E-01   2.3455E+02  0.000E+00  0.000E+00  0.000E+00  1.01896E+03  3.332E+00  4.831E+01  4.923E-01  2.157E-01
   1   13    4     8     3    2.3455E+02 -2.2792E+00   2.3683E+02  0.000E+00  0.000E+00  0.000E+00  1.01271E+03  3.337E+00  4.839E+01  4.931E+00 -1.541E-01
   1   13    3     8     4    2.3683E+02 -3.6539E+00   2.4049E+02  0.000E+00  0.000E+00  0.000E+00  1.00648E+03  3.353E+00  4.861E+01  4.954E+00 -2.459E-01
   1   13    2     8     5    2.4049E+02 -2.5665E+00   2.4305E+02  0.000E+00  0.000E+00  0.000E+00  1.00024E+03  3.369E+00  4.885E+01  4.978E+00 -1.719E-01
   1   13    1     8     6    2.4305E+02 -1.8864E+00   2.4494E+02  0.000E+00  0.000E+00  0.000E+00  9.95256E+02  3.381E+00  4.902E+01  2.997E+00 -2.098E-01





UNSATURATED ZONE PACKAGE VOLUMETRIC BUDGET FOR  TIME STEP    30 STRESS PERIOD   16
  ------------------------------------------------------------------------------



     CUMULATIVE VOLUMES      L**3       RATES FOR THIS TIME STEP      L**3/T
     ------------------                 ------------------------

           IN:                                      IN:
           ---                                      ---
        INFILTRATION =   573778305.5457          INFILTRATION =           4.4075

          OUT:                                     OUT:
          ----                                     ----
              UZF ET =   503812263.9667                UZF ET =           0.7250
        UZF RECHARGE =      797071.6500          UZF RECHARGE =           0.0095

            IN - OUT =    69168969.9290              IN - OUT =           3.6730

          STORAGE:                                 STORAGE:
          --------                                 --------
      STORAGE CHANGE =    69170624.3298        STORAGE CHANGE =           3.6730

 PERCENT DISCREPANCY IS DIFFERENCE BETWEEN IN-OUT MINUS CHANGE IN STORAGE
 DIVIDED BY THE AVERAGE OF IN AND OUT TIMES 100

 PERCENT DISCREPANCY =          -0.00     PERCENT DISCREPANCY =           0.00






1
  VOLUMETRIC BUDGET FOR ENTIRE MODEL AT END OF TIME STEP   30, STRESS PERIOD  16
  ------------------------------------------------------------------------------

     CUMULATIVE VOLUMES      L**3       RATES FOR THIS TIME STEP      L**3/T
     ------------------                 ------------------------

           IN:                                      IN:
           ---                                      ---
               AG WELLS  =   399829152.0000                 AG WELLS  =           0.0000
      DIVERSION SEGMENTS =           0.0000        DIVERSION SEGMENTS =           0.0000
           GW IRRIGATION =           0.0000             GW IRRIGATION =           0.0000
           SW IRRIGATION =           0.0000             SW IRRIGATION =           0.0000
        SYSTEM LOSSES GW =           0.0000          SYSTEM LOSSES GW =           0.0000
        SYSTEM LOSSES SW =           0.0000          SYSTEM LOSSES SW =           0.0000

                TOTAL IN =   399829152.0000                  TOTAL IN =           0.0000

          OUT:                                     OUT:
          ----                                     ----
               AG WELLS  =           0.0000                 AG WELLS  =           0.0000
      DIVERSION SEGMENTS =           0.0000        DIVERSION SEGMENTS =           0.0000
           GW IRRIGATION =   399829152.0000             GW IRRIGATION =           0.0000
           SW IRRIGATION =           0.0000             SW IRRIGATION =           0.0000
        SYSTEM LOSSES GW =           0.0000          SYSTEM LOSSES GW =           0.0000
        SYSTEM LOSSES SW =           0.0000          SYSTEM LOSSES SW =           0.0000

               TOTAL OUT =   399829152.0000                 TOTAL OUT =           0.0000

                IN - OUT =           0.0000                  IN - OUT =           0.0000

     PERCENT DISCREPANCY =           0.00         PERCENT DISCREPANCY =           0.00



1
  VOLUMETRIC BUDGET FOR ENTIRE MODEL AT END OF TIME STEP   30, STRESS PERIOD  16
  ------------------------------------------------------------------------------

     CUMULATIVE VOLUMES      L**3       RATES FOR THIS TIME STEP      L**3/T
     ------------------                 ------------------------

           IN:                                      IN:
           ---                                      ---
             STORAGE     =   570318912.0000               STORAGE     =           3.0692
       CONSTANT HEAD     =           0.0000         CONSTANT HEAD     =           0.0000
     HEAD DEP BOUNDS     =    11284169.0000       HEAD DEP BOUNDS     =           0.2854
      STREAM LEAKAGE     =   491821952.0000        STREAM LEAKAGE     =          13.9011
        UZF RECHARGE     =      797071.5625          UZF RECHARGE     =       9.4584E-03
               GW ET     =           0.0000                 GW ET     =           0.0000
     SURFACE LEAKAGE     =           0.0000       SURFACE LEAKAGE     =           0.0000
           AG WELLS      =           0.0000             AG WELLS      =           0.0000

                TOTAL IN =  1074222080.0000                  TOTAL IN =          17.2651

          OUT:                                     OUT:
          ----                                     ----
             STORAGE     =   241375328.0000               STORAGE     =           6.5811
       CONSTANT HEAD     =           0.0000         CONSTANT HEAD     =           0.0000
     HEAD DEP BOUNDS     =    11630084.0000       HEAD DEP BOUNDS     =           0.2996
      STREAM LEAKAGE     =   407806496.0000        STREAM LEAKAGE     =          10.3860
        UZF RECHARGE     =           0.0000          UZF RECHARGE     =           0.0000
               GW ET     =    13586479.0000                 GW ET     =       6.8044E-13
     SURFACE LEAKAGE     =           0.0000       SURFACE LEAKAGE     =           0.0000
           AG WELLS      =   399829152.0000             AG WELLS      =           0.0000

               TOTAL OUT =  1074227584.0000                 TOTAL OUT =          17.2668

                IN - OUT =       -5504.0000                  IN - OUT =      -1.7071E-03

     PERCENT DISCREPANCY =          -0.00         PERCENT DISCREPANCY =          -0.01






         TIME SUMMARY AT END OF TIME STEP   30 IN STRESS PERIOD   16
                    SECONDS     MINUTES      HOURS       DAYS        YEARS
                    -----------------------------------------------------------
   TIME STEP LENGTH  87667.      1461.1      24.352      1.0147     2.77799E-03
 STRESS PERIOD TIME 2.63000E+06  43833.      730.56      30.440     8.33397E-02
         TOTAL TIME 3.95364E+07 6.58940E+05  10982.      457.60      1.2528    
1
1
                            STRESS PERIOD NO.   17, LENGTH =   2630000.    
                            -----------------------------------------------

                              NUMBER OF TIME STEPS =    30

                               MULTIPLIER FOR DELT =     1.000

                            INITIAL TIME STEP SIZE =   87666.66    

 REUSING NON-PARAMETER GHB CELLS FROM LAST STRESS PERIOD

      2 GHB CELLS

 REUSING STREAM SEGMENT DATA FROM LAST STRESS PERIOD



            AREAL INFILTRATION RATE
 READING ON UNIT   19 WITH FORMAT: (10F4.0)            

            1           2           3           4           5           6           7           8           9          10
 ........................................................................................................................
   1   1.2000E-09   0.000       0.000       0.000       0.000       0.000       0.000       0.000       0.000       0.000    
   2   2.1000E-09  2.0000E-09  8.0000E-10  8.5000E-09   0.000       0.000       0.000       0.000       0.000       0.000    
   3   5.0000E-10  1.1000E-09  8.8000E-09  5.5000E-09   0.000       0.000       0.000       0.000       0.000       0.000    
   4   8.5000E-09  1.1000E-09  1.1000E-09  1.1000E-09  2.0000E-09   0.000       0.000       0.000       0.000       0.000    
   5   8.5000E-09  1.1000E-09  1.1000E-09  1.1000E-09  1.1000E-09   0.000       0.000       0.000       0.000       0.000    
   6   8.5000E-09  5.2000E-09  2.1000E-09  1.1000E-09  1.5000E-09   0.000       0.000       0.000       0.000       0.000    
   7   8.5000E-09  5.2000E-09  2.1000E-09  1.2000E-09  2.0000E-09   0.000       0.000       0.000       0.000       0.000    
   8   5.0000E-10  5.2000E-09  2.1000E-09  1.2000E-09  5.0000E-09   0.000       0.000       0.000       0.000       0.000    
   9   5.0000E-10  5.2000E-09  2.1000E-09  1.2000E-09  5.0000E-09   0.000       0.000       0.000       0.000       0.000    
  10   5.0000E-10  5.2000E-09  2.1000E-09  1.2000E-09  5.8000E-09   0.000       0.000       0.000       0.000       0.000    
  11   1.0000E-10  1.1000E-09  1.1000E-09  1.2000E-09  5.0000E-09   0.000       0.000       0.000       0.000       0.000    
  12   1.1000E-09  1.1000E-09  1.1000E-09  1.1000E-09  2.0000E-09   0.000       0.000       0.000       0.000       0.000    
  13   1.1000E-09  2.2000E-09  2.2000E-09  2.1000E-09  1.0000E-09   0.000       0.000       0.000       0.000       0.000    
  14   2.0000E-10  5.5000E-09  5.5000E-09  5.2000E-09  1.0000E-09   0.000       0.000       0.000       0.000       0.000    
  15    0.000      8.8000E-09  8.8000E-09   0.000       0.000       0.000       0.000       0.000       0.000       0.000    

                  ET RATE =  2.500000E-08

 USING ET EXTINCTION DEPTH FROM PREVIOUS STRESS PERIOD. CURRENT PERIOD IS:      17

 USING EXTINCTION WATER CONTENT FROM PREVIOUS STRESS PERIOD. CURRENT PERIOD IS:      17

 USING AIR ENTRY PRESSURE FROM PREVIOUS STRESS PERIOD. CURRENT PERIOD IS:      17

 USING ROOT PRESSURE HEAD FROM PREVIOUS STRESS PERIOD. CURRENT PERIOD IS:      17

 USING ROOT ACTIVITY FROM PREVIOUS STRESS PERIOD. CURRENT PERIOD IS:      17

 PROCESSING AG STRESS PERIOD DATA

 READING AG STRESS PERIOD DATA

 READING IRRIGATION WELL

 END PROCESSING AG STRESS PERIOD DATA OPTIONS
 
 SOLVING FOR HEAD 
                                                   Max.-Head-Change                         Max.-Flux-Residual
  Residual-Control   Outer-Iter.   Inner-Iter.     Column Row Layer    Maximum-Head-Change  Column Row Layer    Maximum-Flux-Residual          L2-NORM 
          0                 1           2             4    7     1       0.9142413442E-02       4    7    1         0.4785473861E+00      0.1490220277E+01
          0                 2           2             4    7     1      -0.8893089865E-03       4    7    1        -0.4785483671E-01      0.1377640462E+00
          0                 3           1             4    7     1       0.6055863246E-04       4    7    1         0.3349839088E-02      0.9653409548E-02

    ------------------------------------------------
       NWT REQUIRED            3 OUTER ITERATIONS 
       AND A TOTAL OF          5 INNER ITERATIONS.
    ------------------------------------------------

 NO OUTPUT CONTROL FOR STRESS PERIOD   17   TIME STEP    1
 
 SOLVING FOR HEAD 
                                                   Max.-Head-Change                         Max.-Flux-Residual
  Residual-Control   Outer-Iter.   Inner-Iter.     Column Row Layer    Maximum-Head-Change  Column Row Layer    Maximum-Flux-Residual          L2-NORM 
          0                 1           2             4    7     1       0.9048392875E-02       4    7    1         0.4735837610E+00      0.1475219580E+01
          0                 2           2             4    7     1      -0.8801633082E-03       4    7    1        -0.4735847145E-01      0.1467849747E+00
          0                 3           1             4    7     1       0.5993584521E-04       4    7    1         0.3315093519E-02      0.1020848436E-01

    ------------------------------------------------
       NWT REQUIRED            3 OUTER ITERATIONS 
       AND A TOTAL OF          5 INNER ITERATIONS.
    ------------------------------------------------

 NO OUTPUT CONTROL FOR STRESS PERIOD   17   TIME STEP    2
 
 SOLVING FOR HEAD 
                                                   Max.-Head-Change                         Max.-Flux-Residual
  Residual-Control   Outer-Iter.   Inner-Iter.     Column Row Layer    Maximum-Head-Change  Column Row Layer    Maximum-Flux-Residual          L2-NORM 
          0                 1           2             4    7     1       0.8742915881E-02       4    7    1         0.4655760544E+00      0.1399604389E+01
          0                 2           2             5    7     1      -0.9131215930E-03       5    7    1        -0.4964987064E-01      0.1426605938E+00
          0                 3           1             5    7     1       0.6218032601E-04       5    7    1         0.3475490897E-02      0.9928823911E-02

    ------------------------------------------------
       NWT REQUIRED            3 OUTER ITERATIONS 
       AND A TOTAL OF          5 INNER ITERATIONS.
    ------------------------------------------------

 NO OUTPUT CONTROL FOR STRESS PERIOD   17   TIME STEP    3
 
 SOLVING FOR HEAD 
                                                   Max.-Head-Change                         Max.-Flux-Residual
  Residual-Control   Outer-Iter.   Inner-Iter.     Column Row Layer    Maximum-Head-Change  Column Row Layer    Maximum-Flux-Residual          L2-NORM 
          0                 1           2             3   13     1      -0.9165468070E-02       3   13    1        -0.5362929875E+00      0.1290134461E+01
          0                 2           2             3   13     1       0.8748803709E-03       3   13    1         0.5263474738E-01      0.1281282761E+00
          0                 3           1             3   13     1      -0.5802029920E-04       3   13    1        -0.3589044311E-02      0.8888624637E-02

    ------------------------------------------------
       NWT REQUIRED            3 OUTER ITERATIONS 
       AND A TOTAL OF          5 INNER ITERATIONS.
    ------------------------------------------------

 NO OUTPUT CONTROL FOR STRESS PERIOD   17   TIME STEP    4
 
 SOLVING FOR HEAD 
                                                   Max.-Head-Change                         Max.-Flux-Residual
  Residual-Control   Outer-Iter.   Inner-Iter.     Column Row Layer    Maximum-Head-Change  Column Row Layer    Maximum-Flux-Residual          L2-NORM 
          0                 1           2             3   13     1      -0.8175350420E-02       3   13    1        -0.4766253553E+00      0.1274825519E+01
          0                 2           2             3   13     1       0.7757815490E-03       4   13    1         0.4680186885E-01      0.1265008961E+00
          0                 3           1             4   13     1      -0.5195417734E-04       4   13    1        -0.3234944162E-02      0.8766148354E-02

    ------------------------------------------------
       NWT REQUIRED            3 OUTER ITERATIONS 
       AND A TOTAL OF          5 INNER ITERATIONS.
    ------------------------------------------------

 NO OUTPUT CONTROL FOR STRESS PERIOD   17   TIME STEP    5
 
 SOLVING FOR HEAD 
                                                   Max.-Head-Change                         Max.-Flux-Residual
  Residual-Control   Outer-Iter.   Inner-Iter.     Column Row Layer    Maximum-Head-Change  Column Row Layer    Maximum-Flux-Residual          L2-NORM 
          0                 1           2             3   13     1      -0.7296677743E-02       3   13    1        -0.4253633914E+00      0.1173230587E+01
          0                 2           2             3   13     1       0.6924679183E-03       3   13    1         0.4150352900E-01      0.1164589997E+00
          0                 3           1             4   13     1      -0.4585197890E-04       4   13    1        -0.2854216648E-02      0.8073766057E-02

    ------------------------------------------------
       NWT REQUIRED            3 OUTER ITERATIONS 
       AND A TOTAL OF          5 INNER ITERATIONS.
    ------------------------------------------------

 NO OUTPUT CONTROL FOR STRESS PERIOD   17   TIME STEP    6
 
 SOLVING FOR HEAD 
                                                   Max.-Head-Change                         Max.-Flux-Residual
  Residual-Control   Outer-Iter.   Inner-Iter.     Column Row Layer    Maximum-Head-Change  Column Row Layer    Maximum-Flux-Residual          L2-NORM 
          0                 1           2             3    7     1       0.6718538303E-02       3   13    1        -0.3796434134E+00      0.1108535731E+01
          0                 2           2             3    7     1      -0.6535307722E-03       3   13    1         0.3705270706E-01      0.1107215273E+00
          0                 3           1             3    7     1       0.4450307000E-04       4   13    1        -0.2519089147E-02      0.7685788029E-02

    ------------------------------------------------
       NWT REQUIRED            3 OUTER ITERATIONS 
       AND A TOTAL OF          5 INNER ITERATIONS.
    ------------------------------------------------

 NO OUTPUT CONTROL FOR STRESS PERIOD   17   TIME STEP    7
 
 SOLVING FOR HEAD 
                                                   Max.-Head-Change                         Max.-Flux-Residual
  Residual-Control   Outer-Iter.   Inner-Iter.     Column Row Layer    Maximum-Head-Change  Column Row Layer    Maximum-Flux-Residual          L2-NORM 
          0                 1           2             3    7     1       0.6590231034E-02       3   13    1        -0.3388679319E+00      0.1060002311E+01
          0                 2           2             3    7     1      -0.6410497781E-03       3   13    1         0.3307100098E-01      0.1053716101E+00
          0                 3           1             3    7     1       0.4365315995E-04       3   13    1        -0.2237259281E-02      0.7318966097E-02

    ------------------------------------------------
       NWT REQUIRED            3 OUTER ITERATIONS 
       AND A TOTAL OF          5 INNER ITERATIONS.
    ------------------------------------------------

 NO OUTPUT CONTROL FOR STRESS PERIOD   17   TIME STEP    8
 
 SOLVING FOR HEAD 
                                                   Max.-Head-Change                         Max.-Flux-Residual
  Residual-Control   Outer-Iter.   Inner-Iter.     Column Row Layer    Maximum-Head-Change  Column Row Layer    Maximum-Flux-Residual          L2-NORM 
          0                 1           2             3    7     1       0.6464234907E-02       3   13    1        -0.3024925750E+00      0.1001714780E+01
          0                 2           2             3    7     1      -0.6287937853E-03       3   13    1         0.2953157204E-01      0.9963401480E-01
          0                 3           1             3    7     1       0.4281856917E-04       3   13    1        -0.2005385984E-02      0.6927617636E-02

    ------------------------------------------------
       NWT REQUIRED            3 OUTER ITERATIONS 
       AND A TOTAL OF          5 INNER ITERATIONS.
    ------------------------------------------------

 NO OUTPUT CONTROL FOR STRESS PERIOD   17   TIME STEP    9
 
 SOLVING FOR HEAD 
                                                   Max.-Head-Change                         Max.-Flux-Residual
  Residual-Control   Outer-Iter.   Inner-Iter.     Column Row Layer    Maximum-Head-Change  Column Row Layer    Maximum-Flux-Residual          L2-NORM 
          0                 1           2             3    7     1       0.6340516910E-02       3   13    1        -0.2700539221E+00      0.9516286904E+00
          0                 2           2             3    7     1      -0.6167593925E-03       3   13    1         0.2636016718E-01      0.9470103488E-01
          0                 3           1             3    7     1       0.4199906939E-04       3   13    1        -0.1784098157E-02      0.6587372645E-02

    ------------------------------------------------
       NWT REQUIRED            3 OUTER ITERATIONS 
       AND A TOTAL OF          5 INNER ITERATIONS.
    ------------------------------------------------

 NO OUTPUT CONTROL FOR STRESS PERIOD   17   TIME STEP   10
 
 SOLVING FOR HEAD 
                                                   Max.-Head-Change                         Max.-Flux-Residual
  Residual-Control   Outer-Iter.   Inner-Iter.     Column Row Layer    Maximum-Head-Change  Column Row Layer    Maximum-Flux-Residual          L2-NORM 
          0                 1           2             3    7     1       0.6219296442E-02       3   13    1        -0.2411178447E+00      0.9205843097E+00
          0                 2           2             3    7     1      -0.6049679413E-03       3   13    1         0.2353669686E-01      0.9166965741E-01
          0                 3           1             3    7     1       0.4119611236E-04       1    1    1         0.1644329431E-02      0.6381455896E-02

    ------------------------------------------------
       NWT REQUIRED            3 OUTER ITERATIONS 
       AND A TOTAL OF          5 INNER ITERATIONS.
    ------------------------------------------------

 NO OUTPUT CONTROL FOR STRESS PERIOD   17   TIME STEP   11
 
 SOLVING FOR HEAD 
                                                   Max.-Head-Change                         Max.-Flux-Residual
  Residual-Control   Outer-Iter.   Inner-Iter.     Column Row Layer    Maximum-Head-Change  Column Row Layer    Maximum-Flux-Residual          L2-NORM 
          0                 1           2             3    7     1       0.6100049298E-02       1    1    1         0.2346547415E+00      0.8914072824E+00
          0                 2           2             3    7     1      -0.5933684418E-03       1    1    1        -0.2346551285E-01      0.8881407961E-01
          0                 3           1             3    7     1       0.4040622715E-04       1    1    1         0.1642586241E-02      0.6187526843E-02

    ------------------------------------------------
       NWT REQUIRED            3 OUTER ITERATIONS 
       AND A TOTAL OF          5 INNER ITERATIONS.
    ------------------------------------------------

 NO OUTPUT CONTROL FOR STRESS PERIOD   17   TIME STEP   12
 
 SOLVING FOR HEAD 
                                                   Max.-Head-Change                         Max.-Flux-Residual
  Residual-Control   Outer-Iter.   Inner-Iter.     Column Row Layer    Maximum-Head-Change  Column Row Layer    Maximum-Flux-Residual          L2-NORM 
          0                 1           2             3    7     1       0.5983241788E-02       1    1    1         0.2344065554E+00      0.8644407196E+00
          0                 2           2             3    7     1      -0.5820062528E-03       1    1    1        -0.2344069407E-01      0.8616986594E-01
          0                 3           1             3    7     1       0.3963250199E-04       1    1    1         0.1640848937E-02      0.6007143245E-02

    ------------------------------------------------
       NWT REQUIRED            3 OUTER ITERATIONS 
       AND A TOTAL OF          5 INNER ITERATIONS.
    ------------------------------------------------

 NO OUTPUT CONTROL FOR STRESS PERIOD   17   TIME STEP   13
 
 SOLVING FOR HEAD 
                                                   Max.-Head-Change                         Max.-Flux-Residual
  Residual-Control   Outer-Iter.   Inner-Iter.     Column Row Layer    Maximum-Head-Change  Column Row Layer    Maximum-Flux-Residual          L2-NORM 
          0                 1           2             3    7     1       0.5868594954E-02       1    1    1         0.2341579970E+00      0.8396691287E+00
          0                 2           2             3    7     1      -0.5708542393E-03       1    1    1        -0.2341583808E-01      0.8373607764E-01
          0                 3           1             3    7     1       0.3887308917E-04       1    1    1         0.1639109016E-02      0.5840700500E-02

    ------------------------------------------------
       NWT REQUIRED            3 OUTER ITERATIONS 
       AND A TOTAL OF          5 INNER ITERATIONS.
    ------------------------------------------------

 NO OUTPUT CONTROL FOR STRESS PERIOD   17   TIME STEP   14
 
 SOLVING FOR HEAD 
                                                   Max.-Head-Change                         Max.-Flux-Residual
  Residual-Control   Outer-Iter.   Inner-Iter.     Column Row Layer    Maximum-Head-Change  Column Row Layer    Maximum-Flux-Residual          L2-NORM 
          0                 1           2             3    7     1       0.5756324911E-02       1    1    1         0.2339114744E+00      0.8169277209E+00
          0                 2           2             3    7     1      -0.5599334233E-03       1    1    1        -0.2339118563E-01      0.8149895388E-01
          0                 3           1             3    7     1       0.3812942045E-04       1    1    1         0.1637383337E-02      0.5687449023E-02

    ------------------------------------------------
       NWT REQUIRED            3 OUTER ITERATIONS 
       AND A TOTAL OF          5 INNER ITERATIONS.
    ------------------------------------------------

 NO OUTPUT CONTROL FOR STRESS PERIOD   17   TIME STEP   15
 
 SOLVING FOR HEAD 
                                                   Max.-Head-Change                         Max.-Flux-Residual
  Residual-Control   Outer-Iter.   Inner-Iter.     Column Row Layer    Maximum-Head-Change  Column Row Layer    Maximum-Flux-Residual          L2-NORM 
          0                 1           2             3    7     1       0.5646153231E-02       1    1    1         0.2336657748E+00      0.7960387992E+00
          0                 2           2             3    7     1      -0.5492167206E-03       1    1    1        -0.2336661551E-01      0.7944110408E-01
          0                 3           1             3    7     1       0.3739965061E-04       1    1    1         0.1635663441E-02      0.5546190319E-02

    ------------------------------------------------
       NWT REQUIRED            3 OUTER ITERATIONS 
       AND A TOTAL OF          5 INNER ITERATIONS.
    ------------------------------------------------

 NO OUTPUT CONTROL FOR STRESS PERIOD   17   TIME STEP   16
 
 SOLVING FOR HEAD 
                                                   Max.-Head-Change                         Max.-Flux-Residual
  Residual-Control   Outer-Iter.   Inner-Iter.     Column Row Layer    Maximum-Head-Change  Column Row Layer    Maximum-Flux-Residual          L2-NORM 
          0                 1           2             3    7     1       0.5538048252E-02       1    1    1         0.2334196902E+00      0.7768132945E+00
          0                 2           2             3    7     1      -0.5387010527E-03       1    1    1        -0.2334200690E-01      0.7754437351E-01
          0                 3           1             3    7     1       0.3668357101E-04       1    1    1         0.1633940830E-02      0.5415855540E-02

    ------------------------------------------------
       NWT REQUIRED            3 OUTER ITERATIONS 
       AND A TOTAL OF          5 INNER ITERATIONS.
    ------------------------------------------------

 NO OUTPUT CONTROL FOR STRESS PERIOD   17   TIME STEP   17
 
 SOLVING FOR HEAD 
                                                   Max.-Head-Change                         Max.-Flux-Residual
  Residual-Control   Outer-Iter.   Inner-Iter.     Column Row Layer    Maximum-Head-Change  Column Row Layer    Maximum-Flux-Residual          L2-NORM 
          0                 1           2             3    7     1       0.5431979819E-02       1    1    1         0.2331756268E+00      0.7590703984E+00
          0                 2           2             3    7     1      -0.5283834855E-03       1    1    1        -0.2331760038E-01      0.7579192430E-01
          0                 3           1             3    7     1       0.3598098190E-04       1    1    1         0.1632232389E-02      0.5294817906E-02

    ------------------------------------------------
       NWT REQUIRED            3 OUTER ITERATIONS 
       AND A TOTAL OF          5 INNER ITERATIONS.
    ------------------------------------------------

 NO OUTPUT CONTROL FOR STRESS PERIOD   17   TIME STEP   18
 
 SOLVING FOR HEAD 
                                                   Max.-Head-Change                         Max.-Flux-Residual
  Residual-Control   Outer-Iter.   Inner-Iter.     Column Row Layer    Maximum-Head-Change  Column Row Layer    Maximum-Flux-Residual          L2-NORM 
          0                 1           2             3    7     1       0.5328162275E-02       1    1    1         0.2329311690E+00      0.7426517001E+00
          0                 2           2             3    7     1      -0.5187011480E-03       1    1    1        -0.2329315446E-01      0.7416544244E-01
          0                 3           1             3    7     1       0.3572660701E-04       1    1    1         0.1630521162E-02      0.5186987955E-02

    ------------------------------------------------
       NWT REQUIRED            3 OUTER ITERATIONS 
       AND A TOTAL OF          5 INNER ITERATIONS.
    ------------------------------------------------

 NO OUTPUT CONTROL FOR STRESS PERIOD   17   TIME STEP   19
 
 SOLVING FOR HEAD 
                                                   Max.-Head-Change                         Max.-Flux-Residual
  Residual-Control   Outer-Iter.   Inner-Iter.     Column Row Layer    Maximum-Head-Change  Column Row Layer    Maximum-Flux-Residual          L2-NORM 
          0                 1           2             3    7     1       0.5226560204E-02       1    1    1         0.2326887261E+00      0.7274269957E+00
          0                 2           2             3    7     1      -0.5011261599E-03       1    1    1        -0.2326891001E-01      0.7259184645E-01
          0                 3           1             3    7     1       0.3412484515E-04       1    1    1         0.1628824056E-02      0.5074946475E-02

    ------------------------------------------------
       NWT REQUIRED            3 OUTER ITERATIONS 
       AND A TOTAL OF          5 INNER ITERATIONS.
    ------------------------------------------------

 NO OUTPUT CONTROL FOR STRESS PERIOD   17   TIME STEP   20
 
 SOLVING FOR HEAD 
                                                   Max.-Head-Change                         Max.-Flux-Residual
  Residual-Control   Outer-Iter.   Inner-Iter.     Column Row Layer    Maximum-Head-Change  Column Row Layer    Maximum-Flux-Residual          L2-NORM 
          0                 1           2             3    7     1       0.5141653551E-02       1    1    1         0.2324458784E+00      0.7133118850E+00
          0                 2           2             3    7     1      -0.5001435877E-03       1    1    1        -0.2324462509E-01      0.7126305882E-01
          0                 3           1             3    7     1       0.3405793430E-04       1    1    1         0.1627124110E-02      0.4982057985E-02

    ------------------------------------------------
       NWT REQUIRED            3 OUTER ITERATIONS 
       AND A TOTAL OF          5 INNER ITERATIONS.
    ------------------------------------------------

 NO OUTPUT CONTROL FOR STRESS PERIOD   17   TIME STEP   21
 
 SOLVING FOR HEAD 
                                                   Max.-Head-Change                         Max.-Flux-Residual
  Residual-Control   Outer-Iter.   Inner-Iter.     Column Row Layer    Maximum-Head-Change  Column Row Layer    Maximum-Flux-Residual          L2-NORM 
          0                 1           2             3    7     1       0.5051286236E-02       1    1    1         0.2322038304E+00      0.7001546282E+00
          0                 2           2             3    7     1      -0.4913532784E-03       1    1    1        -0.2322042012E-01      0.6995823078E-01
          0                 3           1             3    7     1       0.3345934641E-04       1    1    1         0.1625429760E-02      0.4891908970E-02

    ------------------------------------------------
       NWT REQUIRED            3 OUTER ITERATIONS 
       AND A TOTAL OF          5 INNER ITERATIONS.
    ------------------------------------------------

 NO OUTPUT CONTROL FOR STRESS PERIOD   17   TIME STEP   22
 
 SOLVING FOR HEAD 
                                                   Max.-Head-Change                         Max.-Flux-Residual
  Residual-Control   Outer-Iter.   Inner-Iter.     Column Row Layer    Maximum-Head-Change  Column Row Layer    Maximum-Flux-Residual          L2-NORM 
          0                 1           2             3    7     1       0.4962414538E-02       1    1    1         0.2319637845E+00      0.6878437268E+00
          0                 2           2             3    7     1      -0.4827084528E-03       1    1    1        -0.2319641538E-01      0.6873607194E-01
          0                 3           1             3    7     1       0.3287066555E-04       1    1    1         0.1623749431E-02      0.4807175810E-02

    ------------------------------------------------
       NWT REQUIRED            3 OUTER ITERATIONS 
       AND A TOTAL OF          5 INNER ITERATIONS.
    ------------------------------------------------

 NO OUTPUT CONTROL FOR STRESS PERIOD   17   TIME STEP   23
 
 SOLVING FOR HEAD 
                                                   Max.-Head-Change                         Max.-Flux-Residual
  Residual-Control   Outer-Iter.   Inner-Iter.     Column Row Layer    Maximum-Head-Change  Column Row Layer    Maximum-Flux-Residual          L2-NORM 
          0                 1           2             3    7     1       0.4875268153E-02       1    1    1         0.2317233218E+00      0.6762940946E+00
          0                 2           2             3    7     1      -0.4742314544E-03       1    1    1        -0.2317236897E-01      0.6758867926E-01
          0                 3           1             3    7     1       0.3229341282E-04       1    1    1         0.1622066184E-02      0.4727523175E-02

    ------------------------------------------------
       NWT REQUIRED            3 OUTER ITERATIONS 
       AND A TOTAL OF          5 INNER ITERATIONS.
    ------------------------------------------------

 NO OUTPUT CONTROL FOR STRESS PERIOD   17   TIME STEP   24
 
 SOLVING FOR HEAD 
                                                   Max.-Head-Change                         Max.-Flux-Residual
  Residual-Control   Outer-Iter.   Inner-Iter.     Column Row Layer    Maximum-Head-Change  Column Row Layer    Maximum-Flux-Residual          L2-NORM 
          0                 1           2             3    7     1       0.4789820392E-02       1    1    1         0.2314836447E+00      0.6654417368E+00
          0                 2           2             3    7     1      -0.4659196870E-03       1    1    1        -0.2314840109E-01      0.6650972777E-01
          0                 3           1             3    7     1       0.3172741200E-04       1    1    1         0.1620388429E-02      0.4652405531E-02

    ------------------------------------------------
       NWT REQUIRED            3 OUTER ITERATIONS 
       AND A TOTAL OF          5 INNER ITERATIONS.
    ------------------------------------------------

 NO OUTPUT CONTROL FOR STRESS PERIOD   17   TIME STEP   25
 
 SOLVING FOR HEAD 
                                                   Max.-Head-Change                         Max.-Flux-Residual
  Residual-Control   Outer-Iter.   Inner-Iter.     Column Row Layer    Maximum-Head-Change  Column Row Layer    Maximum-Flux-Residual          L2-NORM 
          0                 1           2             3    7     1       0.4705799625E-02       1    1    1         0.2312447510E+00      0.6552134211E+00
          0                 2           2             3    7     1      -0.4577467273E-03       1    1    1        -0.2312451158E-01      0.6549247804E-01
          0                 3           1             3    7     1       0.3117086285E-04       1    1    1         0.1618716159E-02      0.4581950250E-02

    ------------------------------------------------
       NWT REQUIRED            3 OUTER ITERATIONS 
       AND A TOTAL OF          5 INNER ITERATIONS.
    ------------------------------------------------

 NO OUTPUT CONTROL FOR STRESS PERIOD   17   TIME STEP   26
 
 SOLVING FOR HEAD 
                                                   Max.-Head-Change                         Max.-Flux-Residual
  Residual-Control   Outer-Iter.   Inner-Iter.     Column Row Layer    Maximum-Head-Change  Column Row Layer    Maximum-Flux-Residual          L2-NORM 
          0                 1           2             3    7     1       0.4623431269E-02       1    1    1         0.2310078421E+00      0.6455604678E+00
          0                 2           2             3    7     1      -0.4497345037E-03       1    1    1        -0.2310082054E-01      0.6453153639E-01
          0                 3           1             3    7     1       0.3062526007E-04       1    1    1         0.1617057802E-02      0.4515045361E-02

    ------------------------------------------------
       NWT REQUIRED            3 OUTER ITERATIONS 
       AND A TOTAL OF          5 INNER ITERATIONS.
    ------------------------------------------------

 NO OUTPUT CONTROL FOR STRESS PERIOD   17   TIME STEP   27
 
 SOLVING FOR HEAD 
                                                   Max.-Head-Change                         Max.-Flux-Residual
  Residual-Control   Outer-Iter.   Inner-Iter.     Column Row Layer    Maximum-Head-Change  Column Row Layer    Maximum-Flux-Residual          L2-NORM 
          0                 1           2             3    7     1       0.4542686839E-02       1    1    1         0.2307705000E+00      0.6364270672E+00
          0                 2           2             3    7     1      -0.4418802449E-03       1    1    1        -0.2307708616E-01      0.6362201563E-01
          0                 3           1             3    7     1       0.3009041422E-04       1    1    1         0.1615396383E-02      0.4451859135E-02

    ------------------------------------------------
       NWT REQUIRED            3 OUTER ITERATIONS 
       AND A TOTAL OF          5 INNER ITERATIONS.
    ------------------------------------------------

 NO OUTPUT CONTROL FOR STRESS PERIOD   17   TIME STEP   28
 
 SOLVING FOR HEAD 
                                                   Max.-Head-Change                         Max.-Flux-Residual
  Residual-Control   Outer-Iter.   Inner-Iter.     Column Row Layer    Maximum-Head-Change  Column Row Layer    Maximum-Flux-Residual          L2-NORM 
          0                 1           2             3    7     1       0.4463538879E-02       1    1    1         0.2305339280E+00      0.6277700576E+00
          0                 2           2             3    7     1      -0.4341812800E-03       1    1    1        -0.2305342881E-01      0.6275922221E-01
          0                 3           1             3    7     1       0.2956614280E-04       1    1    1         0.1613740371E-02      0.4391495782E-02

    ------------------------------------------------
       NWT REQUIRED            3 OUTER ITERATIONS 
       AND A TOTAL OF          5 INNER ITERATIONS.
    ------------------------------------------------

 NO OUTPUT CONTROL FOR STRESS PERIOD   17   TIME STEP   29
 
 SOLVING FOR HEAD 
                                                   Max.-Head-Change                         Max.-Flux-Residual
  Residual-Control   Outer-Iter.   Inner-Iter.     Column Row Layer    Maximum-Head-Change  Column Row Layer    Maximum-Flux-Residual          L2-NORM 
          0                 1           2             3    7     1       0.4385715122E-02       4   13    1        -0.2210673760E+00      0.7079781906E+00
          0                 2           2             3    7     1      -0.4266111244E-03       4   13    1         0.2188294083E-01      0.7016361501E-01
          0                 3           1             3    7     1       0.2905064333E-04       4   13    1        -0.1510232371E-02      0.4852414883E-02

    ------------------------------------------------
       NWT REQUIRED            3 OUTER ITERATIONS 
       AND A TOTAL OF          5 INNER ITERATIONS.
    ------------------------------------------------

 NO OUTPUT CONTROL FOR STRESS PERIOD   17   TIME STEP   30



 STREAM LISTING     PERIOD     17   STEP       30

 LAYER ROW COL. STREAM  RCH.  FLOW INTO     FLOW TO   FLOW OUT OF   OVRLND.     DIRECT     STREAM       STREAM     STREAM     STREAM   STREAMBED  STREAMBED
                SEG.NO.  NO.  STRM. RCH.    AQUIFER    STRM. RCH.    RUNOFF     PRECIP       ET          HEAD       DEPTH      WIDTH   CONDCTNC.   GRADIENT

   1    1    1     1     1    6.5908E+01  3.9227E-01   6.5516E+01  0.000E+00  0.000E+00  0.000E+00  1.09464E+03  1.596E+00  1.897E+01  8.536E-02  1.532E+00
   1    2    2     1     2    6.5516E+01  6.0756E-01   6.4909E+01  0.000E+00  0.000E+00  0.000E+00  1.08965E+03  1.590E+00  1.891E+01  1.324E-01  1.530E+00
   1    3    3     1     3    6.4909E+01  5.1821E-01   6.4390E+01  0.000E+00  0.000E+00  0.000E+00  1.08400E+03  1.583E+00  1.884E+01  1.131E-01  1.528E+00
   1    3    4     1     4    6.4390E+01  4.7725E-01   6.3913E+01  0.000E+00  0.000E+00  0.000E+00  1.07899E+03  1.577E+00  1.879E+01  1.043E-01  1.526E+00
   1    4    5     2     1    6.1913E+01  3.9598E-01   6.1517E+01  0.000E+00  0.000E+00  0.000E+00  1.07401E+03  2.077E+00  1.200E+01  7.800E-02  1.692E+00
   1    5    6     2     2    6.1517E+01  3.0418E-01   6.1213E+01  0.000E+00  0.000E+00  0.000E+00  1.06858E+03  2.070E+00  1.200E+01  6.000E-02  1.690E+00
   1    6    6     2     3    6.1213E+01  3.0381E-01   6.0909E+01  0.000E+00  0.000E+00  0.000E+00  1.06386E+03  2.063E+00  1.200E+01  6.000E-02  1.688E+00
   1    7    6     2     4    6.0909E+01  3.0344E-01   6.0606E+01  0.000E+00  0.000E+00  0.000E+00  1.05913E+03  2.057E+00  1.200E+01  6.000E-02  1.686E+00
   1    8    6     2     5    6.0606E+01  3.0307E-01   6.0303E+01  0.000E+00  0.000E+00  0.000E+00  1.05441E+03  2.051E+00  1.200E+01  6.000E-02  1.684E+00
   1    3    5     3     1    2.0000E+00  2.8252E-01   1.7175E+00  0.000E+00  0.000E+00  0.000E+00  1.07555E+03  1.909E+00  9.636E+00  7.227E-02  1.955E+00
   1    3    6     3     2    1.7175E+00  2.4905E-01   1.4684E+00  0.000E+00  0.000E+00  0.000E+00  1.07264E+03  1.727E+00  8.909E+00  6.682E-02  1.864E+00
   1    3    7     3     3    1.4684E+00  1.9718E-01   1.2712E+00  0.000E+00  0.000E+00  0.000E+00  1.06987E+03  1.555E+00  8.218E+00  5.547E-02  1.777E+00
   1    4    8     3     4    1.2712E+00  2.2567E-01   1.0456E+00  0.000E+00  0.000E+00  0.000E+00  1.06682E+03  1.364E+00  7.455E+00  6.709E-02  1.682E+00
   1    5    8     3     5    1.0456E+00  1.5790E-01   8.8768E-01  0.000E+00  0.000E+00  0.000E+00  1.06362E+03  1.164E+00  6.655E+00  4.991E-02  1.582E+00
   1    6    8     3     6    8.8768E-01  5.5980E-02   8.3170E-01  0.000E+00  0.000E+00  0.000E+00  1.06158E+03  1.036E+00  6.145E+00  1.844E-02  1.518E+00
   1    5   10     4     1    1.0000E+01  9.0919E-02   9.9091E+00  0.000E+00  0.000E+00  0.000E+00  1.07836E+03  6.368E-01  1.000E+01  2.500E-02  1.212E+00
   1    5    9     4     2    9.9091E+00  1.8158E-01   9.7275E+00  0.000E+00  0.000E+00  0.000E+00  1.07154E+03  6.315E-01  1.000E+01  5.000E-02  1.211E+00
   1    6    8     4     3    9.7275E+00  1.2689E-01   9.6006E+00  0.000E+00  0.000E+00  0.000E+00  1.06381E+03  6.256E-01  1.000E+01  3.500E-02  1.209E+00
   1    6    8     5     1    1.0432E+01  2.2686E-01   1.0205E+01  0.000E+00  0.000E+00  0.000E+00  1.05868E+03  6.790E-01  1.542E+01  6.166E-02  1.226E+00
   1    7    7     5     2    1.0205E+01  2.7894E-01   9.9265E+00  0.000E+00  0.000E+00  0.000E+00  1.05417E+03  6.732E-01  1.519E+01  7.594E-02  1.224E+00
   1    8    7     5     3    9.9265E+00  1.9221E-01   9.7343E+00  0.000E+00  0.000E+00  0.000E+00  1.04992E+03  6.676E-01  1.497E+01  5.241E-02  1.223E+00
   1    8    6     5     4    9.7343E+00  1.3577E-01   9.5985E+00  0.000E+00  0.000E+00  0.000E+00  1.04691E+03  6.637E-01  1.482E+01  3.706E-02  1.221E+00
   1    9    6     6     1    6.9901E+01  3.1559E-01   6.9586E+01  0.000E+00  0.000E+00  0.000E+00  1.04499E+03  2.260E+00  1.200E+01  6.000E-02  1.753E+00
   1   10    7     6     2    6.9586E+01  3.1522E-01   6.9270E+01  0.000E+00  0.000E+00  0.000E+00  1.04044E+03  2.254E+00  1.200E+01  6.000E-02  1.751E+00
   1   11    7     6     3    6.9270E+01  3.1485E-01   6.8955E+01  0.000E+00  0.000E+00  0.000E+00  1.03588E+03  2.248E+00  1.200E+01  6.000E-02  1.749E+00
   1   12    7     6     4    6.8955E+01  3.1448E-01   6.8641E+01  0.000E+00  0.000E+00  0.000E+00  1.03133E+03  2.241E+00  1.200E+01  6.000E-02  1.747E+00
   1   13    7     6     5    6.8641E+01  2.4670E-02   6.8616E+01  0.000E+00  0.000E+00  0.000E+00  1.02815E+03  2.238E+00  1.200E+01  2.400E-02  3.426E-01
   1   14    9     7     1    1.5000E+02  1.3303E+00   1.4867E+02  0.000E+00  0.000E+00  0.000E+00  1.03987E+03  2.288E+00  5.529E+01  5.593E-01  7.929E-01
   1   13    8     7     2    1.4867E+02  1.8195E+00   1.4685E+02  0.000E+00  0.000E+00  0.000E+00  1.03478E+03  2.279E+00  5.526E+01  6.148E-01  9.865E-01
   1   13    7     7     3    1.4685E+02  1.4357E+00   1.4541E+02  0.000E+00  0.000E+00  0.000E+00  1.02969E+03  2.271E+00  5.522E+01  5.585E-01  8.569E-01
   1   13    6     8     1    2.1403E+02  1.0614E+00   2.1297E+02  0.000E+00  0.000E+00  0.000E+00  1.02509E+03  3.216E+00  4.663E+01  4.751E-01  7.446E-01
   1   13    5     8     2    2.1297E+02  2.4928E-01   2.1272E+02  0.000E+00  0.000E+00  0.000E+00  1.01884E+03  3.212E+00  4.657E+01  4.746E-01  1.751E-01
   1   13    4     8     3    2.1272E+02 -2.3438E+00   2.1506E+02  0.000E+00  0.000E+00  0.000E+00  1.01259E+03  3.218E+00  4.666E+01  4.755E+00 -1.643E-01
   1   13    3     8     4    2.1506E+02 -3.6349E+00   2.1870E+02  0.000E+00  0.000E+00  0.000E+00  1.00636E+03  3.235E+00  4.690E+01  4.779E+00 -2.535E-01
   1   13    2     8     5    2.1870E+02 -2.7172E+00   2.2142E+02  0.000E+00  0.000E+00  0.000E+00  1.00013E+03  3.252E+00  4.716E+01  4.805E+00 -1.885E-01
   1   13    1     8     6    2.2142E+02 -2.0845E+00   2.2350E+02  0.000E+00  0.000E+00  0.000E+00  9.95141E+02  3.265E+00  4.735E+01  2.895E+00 -2.400E-01





UNSATURATED ZONE PACKAGE VOLUMETRIC BUDGET FOR  TIME STEP    30 STRESS PERIOD   17
  ------------------------------------------------------------------------------



     CUMULATIVE VOLUMES      L**3       RATES FOR THIS TIME STEP      L**3/T
     ------------------                 ------------------------

           IN:                                      IN:
           ---                                      ---
        INFILTRATION =   593196919.4810          INFILTRATION =           7.8523

          OUT:                                     OUT:
          ----                                     ----
              UZF ET =   536211079.1866                UZF ET =           7.8575
        UZF RECHARGE =      797071.6500          UZF RECHARGE =       0.0000E+00

            IN - OUT =    56188768.6443              IN - OUT =      -5.1661E-03

          STORAGE:                                 STORAGE:
          --------                                 --------
      STORAGE CHANGE =    56190422.7966        STORAGE CHANGE =      -5.1660E-03

 PERCENT DISCREPANCY IS DIFFERENCE BETWEEN IN-OUT MINUS CHANGE IN STORAGE
 DIVIDED BY THE AVERAGE OF IN AND OUT TIMES 100

 PERCENT DISCREPANCY =          -0.00     PERCENT DISCREPANCY =           0.00






1
  VOLUMETRIC BUDGET FOR ENTIRE MODEL AT END OF TIME STEP   30, STRESS PERIOD  17
  ------------------------------------------------------------------------------

     CUMULATIVE VOLUMES      L**3       RATES FOR THIS TIME STEP      L**3/T
     ------------------                 ------------------------

           IN:                                      IN:
           ---                                      ---
               AG WELLS  =   407656064.0000                 AG WELLS  =           3.4448
      DIVERSION SEGMENTS =           0.0000        DIVERSION SEGMENTS =           0.0000
           GW IRRIGATION =           0.0000             GW IRRIGATION =           0.0000
           SW IRRIGATION =           0.0000             SW IRRIGATION =           0.0000
        SYSTEM LOSSES GW =           0.0000          SYSTEM LOSSES GW =           0.0000
        SYSTEM LOSSES SW =           0.0000          SYSTEM LOSSES SW =           0.0000

                TOTAL IN =   407656064.0000                  TOTAL IN =           3.4448

          OUT:                                     OUT:
          ----                                     ----
               AG WELLS  =           0.0000                 AG WELLS  =           0.0000
      DIVERSION SEGMENTS =           0.0000        DIVERSION SEGMENTS =           0.0000
           GW IRRIGATION =   407656064.0000             GW IRRIGATION =           3.4448
           SW IRRIGATION =           0.0000             SW IRRIGATION =           0.0000
        SYSTEM LOSSES GW =           0.0000          SYSTEM LOSSES GW =           0.0000
        SYSTEM LOSSES SW =           0.0000          SYSTEM LOSSES SW =           0.0000

               TOTAL OUT =   407656064.0000                 TOTAL OUT =           3.4448

                IN - OUT =           0.0000                  IN - OUT =           0.0000

     PERCENT DISCREPANCY =           0.00         PERCENT DISCREPANCY =           0.00



1
  VOLUMETRIC BUDGET FOR ENTIRE MODEL AT END OF TIME STEP   30, STRESS PERIOD  17
  ------------------------------------------------------------------------------

     CUMULATIVE VOLUMES      L**3       RATES FOR THIS TIME STEP      L**3/T
     ------------------                 ------------------------

           IN:                                      IN:
           ---                                      ---
             STORAGE     =   579555840.0000               STORAGE     =           3.4160
       CONSTANT HEAD     =           0.0000         CONSTANT HEAD     =           0.0000
     HEAD DEP BOUNDS     =    12034690.0000       HEAD DEP BOUNDS     =           0.2854
      STREAM LEAKAGE     =   527314048.0000        STREAM LEAKAGE     =          13.1883
        UZF RECHARGE     =      797071.5625          UZF RECHARGE     =           0.0000
               GW ET     =           0.0000                 GW ET     =           0.0000
     SURFACE LEAKAGE     =           0.0000       SURFACE LEAKAGE     =           0.0000
           AG WELLS      =           0.0000             AG WELLS      =           0.0000

                TOTAL IN =  1119701632.0000                  TOTAL IN =          16.8896

          OUT:                                     OUT:
          ----                                     ----
             STORAGE     =   249901760.0000               STORAGE     =           2.1304
       CONSTANT HEAD     =           0.0000         CONSTANT HEAD     =           0.0000
     HEAD DEP BOUNDS     =    12416743.0000       HEAD DEP BOUNDS     =           0.2987
      STREAM LEAKAGE     =   435490688.0000        STREAM LEAKAGE     =          10.7803
        UZF RECHARGE     =           0.0000          UZF RECHARGE     =           0.0000
               GW ET     =    14241654.0000                 GW ET     =           0.2350
     SURFACE LEAKAGE     =           0.0000       SURFACE LEAKAGE     =           0.0000
           AG WELLS      =   407656064.0000             AG WELLS      =           3.4448

               TOTAL OUT =  1119706880.0000                 TOTAL OUT =          16.8893

                IN - OUT =       -5248.0000                  IN - OUT =       3.7193E-04

     PERCENT DISCREPANCY =          -0.00         PERCENT DISCREPANCY =           0.00






         TIME SUMMARY AT END OF TIME STEP   30 IN STRESS PERIOD   17
                    SECONDS     MINUTES      HOURS       DAYS        YEARS
                    -----------------------------------------------------------
   TIME STEP LENGTH  87667.      1461.1      24.352      1.0147     2.77799E-03
 STRESS PERIOD TIME 2.63000E+06  43833.      730.56      30.440     8.33397E-02
         TOTAL TIME 4.21664E+07 7.02774E+05  11713.      488.04      1.3362    
1
1
                            STRESS PERIOD NO.   18, LENGTH =   2630000.    
                            -----------------------------------------------

                              NUMBER OF TIME STEPS =    30

                               MULTIPLIER FOR DELT =     1.000

                            INITIAL TIME STEP SIZE =   87666.66    

 REUSING NON-PARAMETER GHB CELLS FROM LAST STRESS PERIOD

      2 GHB CELLS

 REUSING STREAM SEGMENT DATA FROM LAST STRESS PERIOD



            AREAL INFILTRATION RATE
 READING ON UNIT   19 WITH FORMAT: (10F4.0)            

            1           2           3           4           5           6           7           8           9          10
 ........................................................................................................................
   1   1.2000E-09   0.000       0.000       0.000       0.000       0.000       0.000       0.000       0.000       0.000    
   2   2.1000E-09  2.0000E-09  8.0000E-10  8.5000E-09   0.000       0.000       0.000       0.000       0.000       0.000    
   3   5.0000E-10  1.1000E-09  8.8000E-09  5.5000E-09   0.000       0.000       0.000       0.000       0.000       0.000    
   4   8.5000E-09  1.1000E-09  1.1000E-09  1.1000E-09  2.0000E-09   0.000       0.000       0.000       0.000       0.000    
   5   8.5000E-09  1.1000E-09  1.1000E-09  1.1000E-09  1.1000E-09   0.000       0.000       0.000       0.000       0.000    
   6   8.5000E-09  5.2000E-09  2.1000E-09  1.1000E-09  1.5000E-09   0.000       0.000       0.000       0.000       0.000    
   7   8.5000E-09  5.2000E-09  2.1000E-09  1.2000E-09  2.0000E-09   0.000       0.000       0.000       0.000       0.000    
   8   5.0000E-10  5.2000E-09  2.1000E-09  1.2000E-09  5.0000E-09   0.000       0.000       0.000       0.000       0.000    
   9   5.0000E-10  5.2000E-09  2.1000E-09  1.2000E-09  5.0000E-09   0.000       0.000       0.000       0.000       0.000    
  10   5.0000E-10  5.2000E-09  2.1000E-09  1.2000E-09  5.8000E-09   0.000       0.000       0.000       0.000       0.000    
  11   1.0000E-10  1.1000E-09  1.1000E-09  1.2000E-09  5.0000E-09   0.000       0.000       0.000       0.000       0.000    
  12   1.1000E-09  1.1000E-09  1.1000E-09  1.1000E-09  2.0000E-09   0.000       0.000       0.000       0.000       0.000    
  13   1.1000E-09  2.2000E-09  2.2000E-09  2.1000E-09  1.0000E-09   0.000       0.000       0.000       0.000       0.000    
  14   2.0000E-10  5.5000E-09  5.5000E-09  5.2000E-09  1.0000E-09   0.000       0.000       0.000       0.000       0.000    
  15    0.000      8.8000E-09  8.8000E-09   0.000       0.000       0.000       0.000       0.000       0.000       0.000    

                  ET RATE =  5.000000E-08

 USING ET EXTINCTION DEPTH FROM PREVIOUS STRESS PERIOD. CURRENT PERIOD IS:      18

 USING EXTINCTION WATER CONTENT FROM PREVIOUS STRESS PERIOD. CURRENT PERIOD IS:      18

 USING AIR ENTRY PRESSURE FROM PREVIOUS STRESS PERIOD. CURRENT PERIOD IS:      18

 USING ROOT PRESSURE HEAD FROM PREVIOUS STRESS PERIOD. CURRENT PERIOD IS:      18

 USING ROOT ACTIVITY FROM PREVIOUS STRESS PERIOD. CURRENT PERIOD IS:      18

 PROCESSING AG STRESS PERIOD DATA

 READING AG STRESS PERIOD DATA

 READING IRRIGATION WELL

 END PROCESSING AG STRESS PERIOD DATA OPTIONS
 
 SOLVING FOR HEAD 
                                                   Max.-Head-Change                         Max.-Flux-Residual
  Residual-Control   Outer-Iter.   Inner-Iter.     Column Row Layer    Maximum-Head-Change  Column Row Layer    Maximum-Flux-Residual          L2-NORM 
          0                 1           2             4    7     1      -0.1329255564E-01       4    7    1        -0.6957775966E+00      0.1858340752E+01
          0                 2           2             4    7     1       0.1293002495E-02       4    7    1         0.6957772070E-01      0.1852836492E+00
          0                 3           1             4    7     1      -0.8804868218E-04       4    7    1        -0.4870442904E-02      0.1291997357E-01

    ------------------------------------------------
       NWT REQUIRED            3 OUTER ITERATIONS 
       AND A TOTAL OF          5 INNER ITERATIONS.
    ------------------------------------------------

 NO OUTPUT CONTROL FOR STRESS PERIOD   18   TIME STEP    1
 
 SOLVING FOR HEAD 
                                                   Max.-Head-Change                         Max.-Flux-Residual
  Residual-Control   Outer-Iter.   Inner-Iter.     Column Row Layer    Maximum-Head-Change  Column Row Layer    Maximum-Flux-Residual          L2-NORM 
          0                 1           2             4    7     1      -0.1312885114E-01       4    7    1        -0.6877696490E+00      0.1775689203E+01
          0                 2           2             4    7     1       0.1277078240E-02       4    7    1         0.6877690725E-01      0.1771056383E+00
          0                 3           1             4    7     1      -0.8696430241E-04       4    7    1        -0.4814386126E-02      0.1235524938E-01

    ------------------------------------------------
       NWT REQUIRED            3 OUTER ITERATIONS 
       AND A TOTAL OF          5 INNER ITERATIONS.
    ------------------------------------------------

 NO OUTPUT CONTROL FOR STRESS PERIOD   18   TIME STEP    2
 
 SOLVING FOR HEAD 
                                                   Max.-Head-Change                         Max.-Flux-Residual
  Residual-Control   Outer-Iter.   Inner-Iter.     Column Row Layer    Maximum-Head-Change  Column Row Layer    Maximum-Flux-Residual          L2-NORM 
          0                 1           2             4    7     1      -0.1301949826E-01       4    7    1        -0.6823059017E+00      0.1727119787E+01
          0                 2           2             4    7     1       0.1266441045E-02       4    7    1         0.6823052260E-01      0.1723282336E+00
          0                 3           1             4    7     1      -0.8623995061E-04       4    7    1        -0.4776139284E-02      0.1202820589E-01

    ------------------------------------------------
       NWT REQUIRED            3 OUTER ITERATIONS 
       AND A TOTAL OF          5 INNER ITERATIONS.
    ------------------------------------------------

 NO OUTPUT CONTROL FOR STRESS PERIOD   18   TIME STEP    3
 
 SOLVING FOR HEAD 
                                                   Max.-Head-Change                         Max.-Flux-Residual
  Residual-Control   Outer-Iter.   Inner-Iter.     Column Row Layer    Maximum-Head-Change  Column Row Layer    Maximum-Flux-Residual          L2-NORM 
          0                 1           2             4    7     1      -0.1290620866E-01       4    7    1        -0.6766139272E+00      0.1682704845E+01
          0                 2           2             4    7     1       0.1255420932E-02       4    7    1         0.6766131632E-01      0.1679524091E+00
          0                 3           1             4    7     1      -0.8548952285E-04       4    7    1        -0.4736294908E-02      0.1172805973E-01

    ------------------------------------------------
       NWT REQUIRED            3 OUTER ITERATIONS 
       AND A TOTAL OF          5 INNER ITERATIONS.
    ------------------------------------------------

 NO OUTPUT CONTROL FOR STRESS PERIOD   18   TIME STEP    4
 
 SOLVING FOR HEAD 
                                                   Max.-Head-Change                         Max.-Flux-Residual
  Residual-Control   Outer-Iter.   Inner-Iter.     Column Row Layer    Maximum-Head-Change  Column Row Layer    Maximum-Flux-Residual          L2-NORM 
          0                 1           2             4    7     1      -0.1278942349E-01       4    7    1        -0.6707184402E+00      0.1641833054E+01
          0                 2           2             4    7     1       0.1244060808E-02       4    7    1         0.6707175981E-01      0.1639189962E+00
          0                 3           1             4    7     1      -0.8471594194E-04       4    7    1        -0.4695026020E-02      0.1145045689E-01

    ------------------------------------------------
       NWT REQUIRED            3 OUTER ITERATIONS 
       AND A TOTAL OF          5 INNER ITERATIONS.
    ------------------------------------------------

 NO OUTPUT CONTROL FOR STRESS PERIOD   18   TIME STEP    5
 
 SOLVING FOR HEAD 
                                                   Max.-Head-Change                         Max.-Flux-Residual
  Residual-Control   Outer-Iter.   Inner-Iter.     Column Row Layer    Maximum-Head-Change  Column Row Layer    Maximum-Flux-Residual          L2-NORM 
          0                 1           2             4    7     1      -0.1266968831E-01       4    7    1        -0.6646493246E+00      0.1604025507E+01
          0                 2           2             4    7     1       0.1232407912E-02       4    7    1         0.6646484136E-01      0.1601546623E+00
          0                 3           1             4    7     1      -0.8392242356E-04       4    7    1        -0.4652541774E-02      0.1119075846E-01

    ------------------------------------------------
       NWT REQUIRED            3 OUTER ITERATIONS 
       AND A TOTAL OF          5 INNER ITERATIONS.
    ------------------------------------------------

 NO OUTPUT CONTROL FOR STRESS PERIOD   18   TIME STEP    6
 
 SOLVING FOR HEAD 
                                                   Max.-Head-Change                         Max.-Flux-Residual
  Residual-Control   Outer-Iter.   Inner-Iter.     Column Row Layer    Maximum-Head-Change  Column Row Layer    Maximum-Flux-Residual          L2-NORM 
          0                 1           2             4    7     1      -0.1254723449E-01       4    7    1        -0.6584134262E+00      0.1568874361E+01
          0                 2           2             4    7     1       0.1220502269E-02       4    7    1         0.6584124570E-01      0.1567041410E+00
          0                 3           1             4    7     1      -0.8311169418E-04       4    7    1        -0.4608890103E-02      0.1095264669E-01

    ------------------------------------------------
       NWT REQUIRED            3 OUTER ITERATIONS 
       AND A TOTAL OF          5 INNER ITERATIONS.
    ------------------------------------------------

 NO OUTPUT CONTROL FOR STRESS PERIOD   18   TIME STEP    7
 
 SOLVING FOR HEAD 
                                                   Max.-Head-Change                         Max.-Flux-Residual
  Residual-Control   Outer-Iter.   Inner-Iter.     Column Row Layer    Maximum-Head-Change  Column Row Layer    Maximum-Flux-Residual          L2-NORM 
          0                 1           2             4    7     1      -0.1242265768E-01       4    7    1        -0.6520508131E+00      0.1536180604E+01
          0                 2           2             4    7     1       0.1208384270E-02       4    7    1         0.6520497930E-01      0.1534651418E+00
          0                 3           1             4    7     1      -0.8228650418E-04       4    7    1        -0.4564351481E-02      0.1072862583E-01

    ------------------------------------------------
       NWT REQUIRED            3 OUTER ITERATIONS 
       AND A TOTAL OF          5 INNER ITERATIONS.
    ------------------------------------------------

 NO OUTPUT CONTROL FOR STRESS PERIOD   18   TIME STEP    8
 
 SOLVING FOR HEAD 
                                                   Max.-Head-Change                         Max.-Flux-Residual
  Residual-Control   Outer-Iter.   Inner-Iter.     Column Row Layer    Maximum-Head-Change  Column Row Layer    Maximum-Flux-Residual          L2-NORM 
          0                 1           2             4    7     1      -0.1229614713E-01       4    7    1        -0.6455714290E+00      0.1505492504E+01
          0                 2           2             4    7     1       0.1196078181E-02       4    7    1         0.6455703651E-01      0.1504215745E+00
          0                 3           1             4    7     1      -0.8144850602E-04       4    7    1        -0.4518995504E-02      0.1051813903E-01

    ------------------------------------------------
       NWT REQUIRED            3 OUTER ITERATIONS 
       AND A TOTAL OF          5 INNER ITERATIONS.
    ------------------------------------------------

 NO OUTPUT CONTROL FOR STRESS PERIOD   18   TIME STEP    9
 
 SOLVING FOR HEAD 
                                                   Max.-Head-Change                         Max.-Flux-Residual
  Residual-Control   Outer-Iter.   Inner-Iter.     Column Row Layer    Maximum-Head-Change  Column Row Layer    Maximum-Flux-Residual          L2-NORM 
          0                 1           2             4    7     1      -0.1216813790E-01       4    7    1        -0.6389995141E+00      0.1476572176E+01
          0                 2           2             4    7     1       0.1183626321E-02       4    7    1         0.6389984129E-01      0.1475500433E+00
          0                 3           1             4    7     1      -0.8060058083E-04       4    7    1        -0.4472991858E-02      0.1031892083E-01

    ------------------------------------------------
       NWT REQUIRED            3 OUTER ITERATIONS 
       AND A TOTAL OF          5 INNER ITERATIONS.
    ------------------------------------------------

 NO OUTPUT CONTROL FOR STRESS PERIOD   18   TIME STEP   10
 
 SOLVING FOR HEAD 
                                                   Max.-Head-Change                         Max.-Flux-Residual
  Residual-Control   Outer-Iter.   Inner-Iter.     Column Row Layer    Maximum-Head-Change  Column Row Layer    Maximum-Flux-Residual          L2-NORM 
          0                 1           2             4    7     1      -0.1203863325E-01       4    7    1        -0.6323355180E+00      0.1449217473E+01
          0                 2           2             4    7     1       0.1171029006E-02       4    7    1         0.6323343853E-01      0.1448319062E+00
          0                 3           1             4    7     1      -0.7974275110E-04       4    7    1        -0.4426343689E-02      0.1013019298E-01

    ------------------------------------------------
       NWT REQUIRED            3 OUTER ITERATIONS 
       AND A TOTAL OF          5 INNER ITERATIONS.
    ------------------------------------------------

 NO OUTPUT CONTROL FOR STRESS PERIOD   18   TIME STEP   11
 
 SOLVING FOR HEAD 
                                                   Max.-Head-Change                         Max.-Flux-Residual
  Residual-Control   Outer-Iter.   Inner-Iter.     Column Row Layer    Maximum-Head-Change  Column Row Layer    Maximum-Flux-Residual          L2-NORM 
          0                 1           2             4    7     1      -0.1190803855E-01       4    7    1        -0.6256014784E+00      0.1423278218E+01
          0                 2           2             4    7     1       0.1158325666E-02       4    7    1         0.6256003199E-01      0.1422522056E+00
          0                 3           1             4    7     1      -0.7887770083E-04       4    7    1        -0.4379205212E-02      0.9950752335E-02

    ------------------------------------------------
       NWT REQUIRED            3 OUTER ITERATIONS 
       AND A TOTAL OF          5 INNER ITERATIONS.
    ------------------------------------------------

 NO OUTPUT CONTROL FOR STRESS PERIOD   18   TIME STEP   12
 
 SOLVING FOR HEAD 
                                                   Max.-Head-Change                         Max.-Flux-Residual
  Residual-Control   Outer-Iter.   Inner-Iter.     Column Row Layer    Maximum-Head-Change  Column Row Layer    Maximum-Flux-Residual          L2-NORM 
          0                 1           2             4    7     1      -0.1177673473E-01       4    7    1        -0.6188185319E+00      0.1398599028E+01
          0                 2           2             4    7     1       0.1145553356E-02       4    7    1         0.6188173522E-01      0.1397958936E+00
          0                 3           1             4    7     1      -0.7800795448E-04       4    7    1        -0.4331724449E-02      0.9779857758E-02

    ------------------------------------------------
       NWT REQUIRED            3 OUTER ITERATIONS 
       AND A TOTAL OF          5 INNER ITERATIONS.
    ------------------------------------------------

 NO OUTPUT CONTROL FOR STRESS PERIOD   18   TIME STEP   13
 
 SOLVING FOR HEAD 
                                                   Max.-Head-Change                         Max.-Flux-Residual
  Residual-Control   Outer-Iter.   Inner-Iter.     Column Row Layer    Maximum-Head-Change  Column Row Layer    Maximum-Flux-Residual          L2-NORM 
          0                 1           2             4    7     1      -0.1164466769E-01       4    7    1        -0.6119844433E+00      0.1375073412E+01
          0                 2           2             4    7     1       0.1132706812E-02       4    7    1         0.6119832473E-01      0.1374524669E+00
          0                 3           1             4    7     1      -0.7713315255E-04       4    7    1        -0.4283885708E-02      0.9616045524E-02

    ------------------------------------------------
       NWT REQUIRED            3 OUTER ITERATIONS 
       AND A TOTAL OF          5 INNER ITERATIONS.
    ------------------------------------------------

 NO OUTPUT CONTROL FOR STRESS PERIOD   18   TIME STEP   14
 
 SOLVING FOR HEAD 
                                                   Max.-Head-Change                         Max.-Flux-Residual
  Residual-Control   Outer-Iter.   Inner-Iter.     Column Row Layer    Maximum-Head-Change  Column Row Layer    Maximum-Flux-Residual          L2-NORM 
          0                 1           2             4    7     1      -0.1151232419E-01       4    7    1        -0.6051256418E+00      0.1352589064E+01
          0                 2           2             4    7     1       0.1119833382E-02       4    7    1         0.6051244333E-01      0.1352129595E+00
          0                 3           1             4    7     1      -0.7625651996E-04       4    7    1        -0.4235873993E-02      0.9460795137E-02

    ------------------------------------------------
       NWT REQUIRED            3 OUTER ITERATIONS 
       AND A TOTAL OF          5 INNER ITERATIONS.
    ------------------------------------------------

 NO OUTPUT CONTROL FOR STRESS PERIOD   18   TIME STEP   15
 
 SOLVING FOR HEAD 
                                                   Max.-Head-Change                         Max.-Flux-Residual
  Residual-Control   Outer-Iter.   Inner-Iter.     Column Row Layer    Maximum-Head-Change  Column Row Layer    Maximum-Flux-Residual          L2-NORM 
          0                 1           2             4    7     1      -0.1137962090E-01       4    7    1        -0.5982381311E+00      0.1331071472E+01
          0                 2           2             4    7     1       0.1106924960E-02       4    7    1         0.5982369139E-01      0.1330681249E+00
          0                 3           1             4    7     1      -0.7537750478E-04       4    7    1        -0.4187661373E-02      0.9311229613E-02

    ------------------------------------------------
       NWT REQUIRED            3 OUTER ITERATIONS 
       AND A TOTAL OF          5 INNER ITERATIONS.
    ------------------------------------------------

 NO OUTPUT CONTROL FOR STRESS PERIOD   18   TIME STEP   16
 
 SOLVING FOR HEAD 
                                                   Max.-Head-Change                         Max.-Flux-Residual
  Residual-Control   Outer-Iter.   Inner-Iter.     Column Row Layer    Maximum-Head-Change  Column Row Layer    Maximum-Flux-Residual          L2-NORM 
          0                 1           2             4    7     1      -0.1124701484E-01       4    7    1        -0.5913465864E+00      0.1310448684E+01
          0                 2           2             4    7     1       0.1094026000E-02       4    7    1         0.5913453640E-01      0.1310114141E+00
          0                 3           1             4    7     1      -0.7449913347E-04       4    7    1        -0.4139420490E-02      0.9167786246E-02

    ------------------------------------------------
       NWT REQUIRED            3 OUTER ITERATIONS 
       AND A TOTAL OF          5 INNER ITERATIONS.
    ------------------------------------------------

 NO OUTPUT CONTROL FOR STRESS PERIOD   18   TIME STEP   17
 
 SOLVING FOR HEAD 
                                                   Max.-Head-Change                         Max.-Flux-Residual
  Residual-Control   Outer-Iter.   Inner-Iter.     Column Row Layer    Maximum-Head-Change  Column Row Layer    Maximum-Flux-Residual          L2-NORM 
          0                 1           2             4    7     1      -0.1111439605E-01       4    7    1        -0.5844457076E+00      0.1290649656E+01
          0                 2           2             4    7     1       0.1081125806E-02       4    7    1         0.5844444829E-01      0.1290362600E+00
          0                 3           1             4    7     1      -0.7362067802E-04       4    7    1        -0.4091114300E-02      0.9029856441E-02

    ------------------------------------------------
       NWT REQUIRED            3 OUTER ITERATIONS 
       AND A TOTAL OF          5 INNER ITERATIONS.
    ------------------------------------------------

 NO OUTPUT CONTROL FOR STRESS PERIOD   18   TIME STEP   18
 
 SOLVING FOR HEAD 
                                                   Max.-Head-Change                         Max.-Flux-Residual
  Residual-Control   Outer-Iter.   Inner-Iter.     Column Row Layer    Maximum-Head-Change  Column Row Layer    Maximum-Flux-Residual          L2-NORM 
          0                 1           2             4    7     1      -0.1098219494E-01       4    7    1        -0.5775591466E+00      0.1271614994E+01
          0                 2           2             4    7     1       0.1068266246E-02       4    7    1         0.5775579224E-01      0.1271369541E+00
          0                 3           1             4    7     1      -0.7274498976E-04       4    7    1        -0.4042908364E-02      0.8897372437E-02

    ------------------------------------------------
       NWT REQUIRED            3 OUTER ITERATIONS 
       AND A TOTAL OF          5 INNER ITERATIONS.
    ------------------------------------------------

 NO OUTPUT CONTROL FOR STRESS PERIOD   18   TIME STEP   19
 
 SOLVING FOR HEAD 
                                                   Max.-Head-Change                         Max.-Flux-Residual
  Residual-Control   Outer-Iter.   Inner-Iter.     Column Row Layer    Maximum-Head-Change  Column Row Layer    Maximum-Flux-Residual          L2-NORM 
          0                 1           2             4    7     1      -0.1085027322E-01       4    7    1        -0.5706795095E+00      0.1253298074E+01
          0                 2           2             4    7     1       0.1055433865E-02       4    7    1         0.5706782883E-01      0.1253085674E+00
          0                 3           1             4    7     1      -0.7187115216E-04       4    7    1        -0.3994750896E-02      0.8769656195E-02

    ------------------------------------------------
       NWT REQUIRED            3 OUTER ITERATIONS 
       AND A TOTAL OF          5 INNER ITERATIONS.
    ------------------------------------------------

 NO OUTPUT CONTROL FOR STRESS PERIOD   18   TIME STEP   20
 
 SOLVING FOR HEAD 
                                                   Max.-Head-Change                         Max.-Flux-Residual
  Residual-Control   Outer-Iter.   Inner-Iter.     Column Row Layer    Maximum-Head-Change  Column Row Layer    Maximum-Flux-Residual          L2-NORM 
          0                 1           2             4    7     1      -0.1071903846E-01       4    7    1        -0.5638293348E+00      0.1235668464E+01
          0                 2           2             4    7     1       0.1042668311E-02       4    7    1         0.5638281186E-01      0.1235484496E+00
          0                 3           1             4    7     1      -0.7100186543E-04       4    7    1        -0.3946799700E-02      0.8646775017E-02

    ------------------------------------------------
       NWT REQUIRED            3 OUTER ITERATIONS 
       AND A TOTAL OF          5 INNER ITERATIONS.
    ------------------------------------------------

 NO OUTPUT CONTROL FOR STRESS PERIOD   18   TIME STEP   21
 
 SOLVING FOR HEAD 
                                                   Max.-Head-Change                         Max.-Flux-Residual
  Residual-Control   Outer-Iter.   Inner-Iter.     Column Row Layer    Maximum-Head-Change  Column Row Layer    Maximum-Flux-Residual          L2-NORM 
          0                 1           2             4    7     1      -0.1058846682E-01       4    7    1        -0.5570076521E+00      0.1218671054E+01
          0                 2           2             4    7     1       0.1029967262E-02       4    7    1         0.5570064431E-01      0.1218512734E+00
          0                 3           1             4    7     1      -0.7013697100E-04       4    7    1        -0.3899047937E-02      0.8528179715E-02

    ------------------------------------------------
       NWT REQUIRED            3 OUTER ITERATIONS 
       AND A TOTAL OF          5 INNER ITERATIONS.
    ------------------------------------------------

 NO OUTPUT CONTROL FOR STRESS PERIOD   18   TIME STEP   22
 
 SOLVING FOR HEAD 
                                                   Max.-Head-Change                         Max.-Flux-Residual
  Residual-Control   Outer-Iter.   Inner-Iter.     Column Row Layer    Maximum-Head-Change  Column Row Layer    Maximum-Flux-Residual          L2-NORM 
          0                 1           2             4    7     1      -0.1045866495E-01       4    7    1        -0.5502202350E+00      0.1202276507E+01
          0                 2           2             4    7     1       0.1017341094E-02       4    7    1         0.5502190350E-01      0.1202138517E+00
          0                 3           1             4    7     1      -0.6927717523E-04       4    7    1        -0.3851536030E-02      0.8413735047E-02

    ------------------------------------------------
       NWT REQUIRED            3 OUTER ITERATIONS 
       AND A TOTAL OF          5 INNER ITERATIONS.
    ------------------------------------------------

 NO OUTPUT CONTROL FOR STRESS PERIOD   18   TIME STEP   23
 
 SOLVING FOR HEAD 
                                                   Max.-Head-Change                         Max.-Flux-Residual
  Residual-Control   Outer-Iter.   Inner-Iter.     Column Row Layer    Maximum-Head-Change  Column Row Layer    Maximum-Flux-Residual          L2-NORM 
          0                 1           2             4    7     1      -0.1032960068E-01       4    7    1        -0.5434656041E+00      0.1186446564E+01
          0                 2           2             4    7     1       0.1004786677E-02       4    7    1         0.5434644147E-01      0.1186326641E+00
          0                 3           1             4    7     1      -0.6842226570E-04       4    7    1        -0.3804253661E-02      0.8303296392E-02

    ------------------------------------------------
       NWT REQUIRED            3 OUTER ITERATIONS 
       AND A TOTAL OF          5 INNER ITERATIONS.
    ------------------------------------------------

 NO OUTPUT CONTROL FOR STRESS PERIOD   18   TIME STEP   24
 
 SOLVING FOR HEAD 
                                                   Max.-Head-Change                         Max.-Flux-Residual
  Residual-Control   Outer-Iter.   Inner-Iter.     Column Row Layer    Maximum-Head-Change  Column Row Layer    Maximum-Flux-Residual          L2-NORM 
          0                 1           2             4    7     1      -0.1020163921E-01       4    7    1        -0.5367640724E+00      0.1171162252E+01
          0                 2           2             4    7     1       0.9923395357E-03       4    7    1         0.5367628952E-01      0.1171057506E+00
          0                 3           1             4    7     1      -0.6757466215E-04       4    7    1        -0.3757343021E-02      0.8196518449E-02

    ------------------------------------------------
       NWT REQUIRED            3 OUTER ITERATIONS 
       AND A TOTAL OF          5 INNER ITERATIONS.
    ------------------------------------------------

 NO OUTPUT CONTROL FOR STRESS PERIOD   18   TIME STEP   25
 
 SOLVING FOR HEAD 
                                                   Max.-Head-Change                         Max.-Flux-Residual
  Residual-Control   Outer-Iter.   Inner-Iter.     Column Row Layer    Maximum-Head-Change  Column Row Layer    Maximum-Flux-Residual          L2-NORM 
          0                 1           2             4    7     1      -0.1007471714E-01       4    7    1        -0.5301124751E+00      0.1156384055E+01
          0                 2           2             4    7     1       0.9799934984E-03       4    7    1         0.5301113108E-01      0.1156294039E+00
          0                 3           1             4    7     1      -0.6673394188E-04       4    7    1        -0.3710781862E-02      0.8093457590E-02

    ------------------------------------------------
       NWT REQUIRED            3 OUTER ITERATIONS 
       AND A TOTAL OF          5 INNER ITERATIONS.
    ------------------------------------------------

 NO OUTPUT CONTROL FOR STRESS PERIOD   18   TIME STEP   26
 
 SOLVING FOR HEAD 
                                                   Max.-Head-Change                         Max.-Flux-Residual
  Residual-Control   Outer-Iter.   Inner-Iter.     Column Row Layer    Maximum-Head-Change  Column Row Layer    Maximum-Flux-Residual          L2-NORM 
          0                 1           2             4    7     1      -0.9948908933E-02       4    7    1        -0.5235148903E+00      0.1142097384E+01
          0                 2           2             4    7     1       0.9677558128E-03       4    7    1         0.5235137401E-01      0.1142016085E+00
          0                 3           1             4    7     1      -0.6590060109E-04       4    7    1        -0.3664598853E-02      0.7993418864E-02

    ------------------------------------------------
       NWT REQUIRED            3 OUTER ITERATIONS 
       AND A TOTAL OF          5 INNER ITERATIONS.
    ------------------------------------------------

 NO OUTPUT CONTROL FOR STRESS PERIOD   18   TIME STEP   27
 
 SOLVING FOR HEAD 
                                                   Max.-Head-Change                         Max.-Flux-Residual
  Residual-Control   Outer-Iter.   Inner-Iter.     Column Row Layer    Maximum-Head-Change  Column Row Layer    Maximum-Flux-Residual          L2-NORM 
          0                 1           2             4    7     1      -0.9824412786E-02       4    7    1        -0.5169824271E+00      0.1128274089E+01
          0                 2           2             4    7     1       0.9556457559E-03       4    7    1         0.5169812920E-01      0.1128201891E+00
          0                 3           1             4    7     1      -0.6507595095E-04       4    7    1        -0.3618871681E-02      0.7896782164E-02

    ------------------------------------------------
       NWT REQUIRED            3 OUTER ITERATIONS 
       AND A TOTAL OF          5 INNER ITERATIONS.
    ------------------------------------------------

 NO OUTPUT CONTROL FOR STRESS PERIOD   18   TIME STEP   28
 
 SOLVING FOR HEAD 
                                                   Max.-Head-Change                         Max.-Flux-Residual
  Residual-Control   Outer-Iter.   Inner-Iter.     Column Row Layer    Maximum-Head-Change  Column Row Layer    Maximum-Flux-Residual          L2-NORM 
          0                 1           2             4    7     1      -0.9701012762E-02       4    7    1        -0.5105035010E+00      0.1114895420E+01
          0                 2           2             4    7     1       0.9436423230E-03       4    7    1         0.5105023818E-01      0.1114831341E+00
          0                 3           1             4    7     1      -0.6425856122E-04       4    7    1        -0.3573519276E-02      0.7803269160E-02

    ------------------------------------------------
       NWT REQUIRED            3 OUTER ITERATIONS 
       AND A TOTAL OF          5 INNER ITERATIONS.
    ------------------------------------------------

 NO OUTPUT CONTROL FOR STRESS PERIOD   18   TIME STEP   29
 
 SOLVING FOR HEAD 
                                                   Max.-Head-Change                         Max.-Flux-Residual
  Residual-Control   Outer-Iter.   Inner-Iter.     Column Row Layer    Maximum-Head-Change  Column Row Layer    Maximum-Flux-Residual          L2-NORM 
          0                 1           2             4    7     1      -0.9578904045E-02       4    7    1        -0.5040887760E+00      0.1101947792E+01
          0                 2           2             4    7     1       0.9317645004E-03       4    7    1         0.5040876736E-01      0.1101891086E+00
          0                 3           1             4    7     1      -0.6344972547E-04       4    7    1        -0.3528616284E-02      0.7712696941E-02

    ------------------------------------------------
       NWT REQUIRED            3 OUTER ITERATIONS 
       AND A TOTAL OF          5 INNER ITERATIONS.
    ------------------------------------------------

 NO OUTPUT CONTROL FOR STRESS PERIOD   18   TIME STEP   30



 STREAM LISTING     PERIOD     18   STEP       30

 LAYER ROW COL. STREAM  RCH.  FLOW INTO     FLOW TO   FLOW OUT OF   OVRLND.     DIRECT     STREAM       STREAM     STREAM     STREAM   STREAMBED  STREAMBED
                SEG.NO.  NO.  STRM. RCH.    AQUIFER    STRM. RCH.    RUNOFF     PRECIP       ET          HEAD       DEPTH      WIDTH   CONDCTNC.   GRADIENT

   1    1    1     1     1    6.3001E+01  3.8237E-01   6.2619E+01  0.000E+00  0.000E+00  0.000E+00  1.09461E+03  1.562E+00  1.863E+01  8.382E-02  1.521E+00
   1    2    2     1     2    6.2619E+01  5.9218E-01   6.2026E+01  0.000E+00  0.000E+00  0.000E+00  1.08961E+03  1.556E+00  1.857E+01  1.300E-01  1.519E+00
   1    3    3     1     3    6.2026E+01  5.0506E-01   6.1521E+01  0.000E+00  0.000E+00  0.000E+00  1.08397E+03  1.549E+00  1.850E+01  1.110E-01  1.516E+00
   1    3    4     1     4    6.1521E+01  4.6511E-01   6.1056E+01  0.000E+00  0.000E+00  0.000E+00  1.07895E+03  1.543E+00  1.845E+01  1.024E-01  1.514E+00
   1    4    5     2     1    5.9056E+01  3.9145E-01   5.8665E+01  0.000E+00  0.000E+00  0.000E+00  1.07395E+03  2.019E+00  1.200E+01  7.800E-02  1.673E+00
   1    5    6     2     2    5.8665E+01  3.0069E-01   5.8364E+01  0.000E+00  0.000E+00  0.000E+00  1.06852E+03  2.011E+00  1.200E+01  6.000E-02  1.670E+00
   1    6    6     2     3    5.8364E+01  3.0031E-01   5.8064E+01  0.000E+00  0.000E+00  0.000E+00  1.06380E+03  2.005E+00  1.200E+01  6.000E-02  1.668E+00
   1    7    6     2     4    5.8064E+01  2.9994E-01   5.7764E+01  0.000E+00  0.000E+00  0.000E+00  1.05907E+03  1.999E+00  1.200E+01  6.000E-02  1.666E+00
   1    8    6     2     5    5.7764E+01  2.9957E-01   5.7464E+01  0.000E+00  0.000E+00  0.000E+00  1.05435E+03  1.993E+00  1.200E+01  6.000E-02  1.664E+00
   1    3    5     3     1    2.0000E+00  2.8252E-01   1.7175E+00  0.000E+00  0.000E+00  0.000E+00  1.07555E+03  1.909E+00  9.636E+00  7.227E-02  1.955E+00
   1    3    6     3     2    1.7175E+00  2.4905E-01   1.4684E+00  0.000E+00  0.000E+00  0.000E+00  1.07264E+03  1.727E+00  8.909E+00  6.682E-02  1.864E+00
   1    3    7     3     3    1.4684E+00  1.9718E-01   1.2712E+00  0.000E+00  0.000E+00  0.000E+00  1.06987E+03  1.555E+00  8.218E+00  5.547E-02  1.777E+00
   1    4    8     3     4    1.2712E+00  2.2567E-01   1.0456E+00  0.000E+00  0.000E+00  0.000E+00  1.06682E+03  1.364E+00  7.455E+00  6.709E-02  1.682E+00
   1    5    8     3     5    1.0456E+00  1.5790E-01   8.8768E-01  0.000E+00  0.000E+00  0.000E+00  1.06362E+03  1.164E+00  6.655E+00  4.991E-02  1.582E+00
   1    6    8     3     6    8.8768E-01  5.5980E-02   8.3170E-01  0.000E+00  0.000E+00  0.000E+00  1.06158E+03  1.036E+00  6.145E+00  1.844E-02  1.518E+00
   1    5   10     4     1    1.0000E+01  9.0919E-02   9.9091E+00  0.000E+00  0.000E+00  0.000E+00  1.07836E+03  6.368E-01  1.000E+01  2.500E-02  1.212E+00
   1    5    9     4     2    9.9091E+00  1.8158E-01   9.7275E+00  0.000E+00  0.000E+00  0.000E+00  1.07154E+03  6.315E-01  1.000E+01  5.000E-02  1.211E+00
   1    6    8     4     3    9.7275E+00  1.2689E-01   9.6006E+00  0.000E+00  0.000E+00  0.000E+00  1.06381E+03  6.256E-01  1.000E+01  3.500E-02  1.209E+00
   1    6    8     5     1    1.0432E+01  2.2686E-01   1.0205E+01  0.000E+00  0.000E+00  0.000E+00  1.05868E+03  6.790E-01  1.542E+01  6.166E-02  1.226E+00
   1    7    7     5     2    1.0205E+01  2.7894E-01   9.9265E+00  0.000E+00  0.000E+00  0.000E+00  1.05417E+03  6.732E-01  1.519E+01  7.594E-02  1.224E+00
   1    8    7     5     3    9.9265E+00  1.9221E-01   9.7343E+00  0.000E+00  0.000E+00  0.000E+00  1.04992E+03  6.676E-01  1.497E+01  5.241E-02  1.223E+00
   1    8    6     5     4    9.7343E+00  1.3577E-01   9.5985E+00  0.000E+00  0.000E+00  0.000E+00  1.04691E+03  6.637E-01  1.482E+01  3.706E-02  1.221E+00
   1    9    6     6     1    6.7063E+01  3.1225E-01   6.6751E+01  0.000E+00  0.000E+00  0.000E+00  1.04493E+03  2.204E+00  1.200E+01  6.000E-02  1.735E+00
   1   10    7     6     2    6.6751E+01  3.1188E-01   6.6439E+01  0.000E+00  0.000E+00  0.000E+00  1.04038E+03  2.198E+00  1.200E+01  6.000E-02  1.733E+00
   1   11    7     6     3    6.6439E+01  3.1151E-01   6.6127E+01  0.000E+00  0.000E+00  0.000E+00  1.03583E+03  2.192E+00  1.200E+01  6.000E-02  1.731E+00
   1   12    7     6     4    6.6127E+01  3.1114E-01   6.5816E+01  0.000E+00  0.000E+00  0.000E+00  1.03128E+03  2.186E+00  1.200E+01  6.000E-02  1.729E+00
   1   13    7     6     5    6.5816E+01  2.3558E-02   6.5792E+01  0.000E+00  0.000E+00  0.000E+00  1.02809E+03  2.182E+00  1.200E+01  2.400E-02  3.272E-01
   1   14    9     7     1    1.5000E+02  1.3310E+00   1.4867E+02  0.000E+00  0.000E+00  0.000E+00  1.03987E+03  2.288E+00  5.529E+01  5.593E-01  7.932E-01
   1   13    8     7     2    1.4867E+02  1.8224E+00   1.4685E+02  0.000E+00  0.000E+00  0.000E+00  1.03478E+03  2.279E+00  5.526E+01  6.148E-01  9.881E-01
   1   13    7     7     3    1.4685E+02  1.4409E+00   1.4541E+02  0.000E+00  0.000E+00  0.000E+00  1.02969E+03  2.271E+00  5.522E+01  5.585E-01  8.600E-01
   1   13    6     8     1    2.1120E+02  1.0586E+00   2.1014E+02  0.000E+00  0.000E+00  0.000E+00  1.02507E+03  3.199E+00  4.639E+01  4.728E-01  7.464E-01
   1   13    5     8     2    2.1014E+02  2.5131E-01   2.0989E+02  0.000E+00  0.000E+00  0.000E+00  1.01882E+03  3.196E+00  4.634E+01  4.722E-01  1.774E-01
   1   13    4     8     3    2.0989E+02 -2.1997E+00   2.1209E+02  0.000E+00  0.000E+00  0.000E+00  1.01258E+03  3.201E+00  4.642E+01  4.730E+00 -1.550E-01
   1   13    3     8     4    2.1209E+02 -3.4617E+00   2.1555E+02  0.000E+00  0.000E+00  0.000E+00  1.00634E+03  3.217E+00  4.665E+01  4.754E+00 -2.427E-01
   1   13    2     8     5    2.1555E+02 -2.5511E+00   2.1810E+02  0.000E+00  0.000E+00  0.000E+00  1.00011E+03  3.234E+00  4.690E+01  4.779E+00 -1.779E-01
   1   13    1     8     6    2.1810E+02 -2.0018E+00   2.2010E+02  0.000E+00  0.000E+00  0.000E+00  9.95122E+02  3.247E+00  4.708E+01  2.879E+00 -2.318E-01





UNSATURATED ZONE PACKAGE VOLUMETRIC BUDGET FOR  TIME STEP    30 STRESS PERIOD   18
  ------------------------------------------------------------------------------



     CUMULATIVE VOLUMES      L**3       RATES FOR THIS TIME STEP      L**3/T
     ------------------                 ------------------------

           IN:                                      IN:
           ---                                      ---
        INFILTRATION =   623656399.6860          INFILTRATION =          11.5988

          OUT:                                     OUT:
          ----                                     ----
              UZF ET =   566738802.8527                UZF ET =          11.6075
        UZF RECHARGE =      797071.6500          UZF RECHARGE =       0.0000E+00

            IN - OUT =    56120525.1834              IN - OUT =      -8.6567E-03

          STORAGE:                                 STORAGE:
          --------                                 --------
      STORAGE CHANGE =    56122178.8311        STORAGE CHANGE =      -8.6568E-03

 PERCENT DISCREPANCY IS DIFFERENCE BETWEEN IN-OUT MINUS CHANGE IN STORAGE
 DIVIDED BY THE AVERAGE OF IN AND OUT TIMES 100

 PERCENT DISCREPANCY =          -0.00     PERCENT DISCREPANCY =           0.00






1
  VOLUMETRIC BUDGET FOR ENTIRE MODEL AT END OF TIME STEP   30, STRESS PERIOD  18
  ------------------------------------------------------------------------------

     CUMULATIVE VOLUMES      L**3       RATES FOR THIS TIME STEP      L**3/T
     ------------------                 ------------------------

           IN:                                      IN:
           ---                                      ---
               AG WELLS  =   426523776.0000                 AG WELLS  =           7.1913
      DIVERSION SEGMENTS =           0.0000        DIVERSION SEGMENTS =           0.0000
           GW IRRIGATION =           0.0000             GW IRRIGATION =           0.0000
           SW IRRIGATION =           0.0000             SW IRRIGATION =           0.0000
        SYSTEM LOSSES GW =           0.0000          SYSTEM LOSSES GW =           0.0000
        SYSTEM LOSSES SW =           0.0000          SYSTEM LOSSES SW =           0.0000

                TOTAL IN =   426523776.0000                  TOTAL IN =           7.1913

          OUT:                                     OUT:
          ----                                     ----
               AG WELLS  =           0.0000                 AG WELLS  =           0.0000
      DIVERSION SEGMENTS =           0.0000        DIVERSION SEGMENTS =           0.0000
           GW IRRIGATION =   426523776.0000             GW IRRIGATION =           7.1913
           SW IRRIGATION =           0.0000             SW IRRIGATION =           0.0000
        SYSTEM LOSSES GW =           0.0000          SYSTEM LOSSES GW =           0.0000
        SYSTEM LOSSES SW =           0.0000          SYSTEM LOSSES SW =           0.0000

               TOTAL OUT =   426523776.0000                 TOTAL OUT =           7.1913

                IN - OUT =           0.0000                  IN - OUT =           0.0000

     PERCENT DISCREPANCY =           0.00         PERCENT DISCREPANCY =           0.00



1
  VOLUMETRIC BUDGET FOR ENTIRE MODEL AT END OF TIME STEP   30, STRESS PERIOD  18
  ------------------------------------------------------------------------------

     CUMULATIVE VOLUMES      L**3       RATES FOR THIS TIME STEP      L**3/T
     ------------------                 ------------------------

           IN:                                      IN:
           ---                                      ---
             STORAGE     =   595280960.0000               STORAGE     =           5.2617
       CONSTANT HEAD     =           0.0000         CONSTANT HEAD     =           0.0000
     HEAD DEP BOUNDS     =    12785312.0000       HEAD DEP BOUNDS     =           0.2854
      STREAM LEAKAGE     =   561764672.0000        STREAM LEAKAGE     =          13.1126
        UZF RECHARGE     =      797071.5625          UZF RECHARGE     =           0.0000
               GW ET     =           0.0000                 GW ET     =           0.0000
     SURFACE LEAKAGE     =           0.0000       SURFACE LEAKAGE     =           0.0000
           AG WELLS      =           0.0000             AG WELLS      =           0.0000

                TOTAL IN =  1170627968.0000                  TOTAL IN =          18.6598

          OUT:                                     OUT:
          ----                                     ----
             STORAGE     =   252918864.0000               STORAGE     =           0.6883
       CONSTANT HEAD     =           0.0000         CONSTANT HEAD     =           0.0000
     HEAD DEP BOUNDS     =    13199595.0000       HEAD DEP BOUNDS     =           0.2971
      STREAM LEAKAGE     =   462907232.0000        STREAM LEAKAGE     =          10.2143
        UZF RECHARGE     =           0.0000          UZF RECHARGE     =           0.0000
               GW ET     =    15080096.0000                 GW ET     =           0.2675
     SURFACE LEAKAGE     =           0.0000       SURFACE LEAKAGE     =           0.0000
           AG WELLS      =   426523776.0000             AG WELLS      =           7.1913

               TOTAL OUT =  1170629504.0000                 TOTAL OUT =          18.6585

                IN - OUT =       -1536.0000                  IN - OUT =       1.3123E-03

     PERCENT DISCREPANCY =          -0.00         PERCENT DISCREPANCY =           0.01






         TIME SUMMARY AT END OF TIME STEP   30 IN STRESS PERIOD   18
                    SECONDS     MINUTES      HOURS       DAYS        YEARS
                    -----------------------------------------------------------
   TIME STEP LENGTH  87667.      1461.1      24.352      1.0147     2.77799E-03
 STRESS PERIOD TIME 2.63000E+06  43833.      730.56      30.440     8.33397E-02
         TOTAL TIME 4.47965E+07 7.46608E+05  12443.      518.48      1.4195    
1
1
                            STRESS PERIOD NO.   19, LENGTH =   2630000.    
                            -----------------------------------------------

                              NUMBER OF TIME STEPS =    30

                               MULTIPLIER FOR DELT =     1.000

                            INITIAL TIME STEP SIZE =   87666.66    

 REUSING NON-PARAMETER GHB CELLS FROM LAST STRESS PERIOD

      2 GHB CELLS

 REUSING STREAM SEGMENT DATA FROM LAST STRESS PERIOD



            AREAL INFILTRATION RATE
 READING ON UNIT   19 WITH FORMAT: (10F4.0)            

            1           2           3           4           5           6           7           8           9          10
 ........................................................................................................................
   1   1.2000E-09   0.000       0.000       0.000       0.000       0.000       0.000       0.000       0.000       0.000    
   2   2.1000E-09  2.0000E-09  8.0000E-10  8.5000E-09   0.000       0.000       0.000       0.000       0.000       0.000    
   3   5.0000E-10  1.1000E-09  8.8000E-09  5.5000E-09   0.000       0.000       0.000       0.000       0.000       0.000    
   4   8.5000E-09  1.1000E-09  1.1000E-09  1.1000E-09  2.0000E-09   0.000       0.000       0.000       0.000       0.000    
   5   8.5000E-09  1.1000E-09  1.1000E-09  1.1000E-09  1.1000E-09   0.000       0.000       0.000       0.000       0.000    
   6   8.5000E-09  5.2000E-09  2.1000E-09  1.1000E-09  1.5000E-09   0.000       0.000       0.000       0.000       0.000    
   7   8.5000E-09  5.2000E-09  2.1000E-09  1.2000E-09  2.0000E-09   0.000       0.000       0.000       0.000       0.000    
   8   5.0000E-10  5.2000E-09  2.1000E-09  1.2000E-09  5.0000E-09   0.000       0.000       0.000       0.000       0.000    
   9   5.0000E-10  5.2000E-09  2.1000E-09  1.2000E-09  5.0000E-09   0.000       0.000       0.000       0.000       0.000    
  10   5.0000E-10  5.2000E-09  2.1000E-09  1.2000E-09  5.8000E-09   0.000       0.000       0.000       0.000       0.000    
  11   1.0000E-10  1.1000E-09  1.1000E-09  1.2000E-09  5.0000E-09   0.000       0.000       0.000       0.000       0.000    
  12   1.1000E-09  1.1000E-09  1.1000E-09  1.1000E-09  2.0000E-09   0.000       0.000       0.000       0.000       0.000    
  13   1.1000E-09  2.2000E-09  2.2000E-09  2.1000E-09  1.0000E-09   0.000       0.000       0.000       0.000       0.000    
  14   2.0000E-10  5.5000E-09  5.5000E-09  5.2000E-09  1.0000E-09   0.000       0.000       0.000       0.000       0.000    
  15    0.000      8.8000E-09  8.8000E-09   0.000       0.000       0.000       0.000       0.000       0.000       0.000    

                  ET RATE =  1.500000E-07

 USING ET EXTINCTION DEPTH FROM PREVIOUS STRESS PERIOD. CURRENT PERIOD IS:      19

 USING EXTINCTION WATER CONTENT FROM PREVIOUS STRESS PERIOD. CURRENT PERIOD IS:      19

 USING AIR ENTRY PRESSURE FROM PREVIOUS STRESS PERIOD. CURRENT PERIOD IS:      19

 USING ROOT PRESSURE HEAD FROM PREVIOUS STRESS PERIOD. CURRENT PERIOD IS:      19

 USING ROOT ACTIVITY FROM PREVIOUS STRESS PERIOD. CURRENT PERIOD IS:      19

 PROCESSING AG STRESS PERIOD DATA

 READING AG STRESS PERIOD DATA

 READING IRRIGATION WELL

 END PROCESSING AG STRESS PERIOD DATA OPTIONS
 
 SOLVING FOR HEAD 
                                                   Max.-Head-Change                         Max.-Flux-Residual
  Residual-Control   Outer-Iter.   Inner-Iter.     Column Row Layer    Maximum-Head-Change  Column Row Layer    Maximum-Flux-Residual          L2-NORM 
          0                 1           2             4    7     1      -0.5734134641E-01       4    7    1        -0.2997748610E+01      0.7142068616E+01
          0                 2           2             4    7     1       0.5577722555E-02       4    7    1         0.2997731591E+00      0.7141007448E+00
          0                 3           2             4    7     1      -0.3798224906E-03       4    7    1        -0.2098414631E-01      0.4997826280E-01
          0                 4           1             4    7     1       0.1511349087E-04       4    7    1         0.8582527032E-03      0.2043556693E-02

    ------------------------------------------------
       NWT REQUIRED            4 OUTER ITERATIONS 
       AND A TOTAL OF          7 INNER ITERATIONS.
    ------------------------------------------------

 OUTPUT CONTROL FOR STRESS PERIOD   19   TIME STEP    1
    PRINT BUDGET
    SAVE BUDGET
 UBDSV1 SAVING "         STORAGE" ON UNIT 102 AT TIME STEP  1, STRESS PERIOD  19
 UBDSV2 SAVING "   CONSTANT HEAD" ON UNIT 102 AT TIME STEP  1, STRESS PERIOD  19
 UBDSV1 SAVING "FLOW RIGHT FACE " ON UNIT 102 AT TIME STEP  1, STRESS PERIOD  19
 UBDSV1 SAVING "FLOW FRONT FACE " ON UNIT 102 AT TIME STEP  1, STRESS PERIOD  19

  HEAD DEP BOUNDS   PERIOD   19   STEP     1
 BOUNDARY      1   LAYER   1   ROW    13   COL     1   RATE   -0.297000    
 BOUNDARY      2   LAYER   1   ROW    14   COL     9   RATE    0.285430    



 STREAM LISTING     PERIOD     19   STEP        1

 LAYER ROW COL. STREAM  RCH.  FLOW INTO     FLOW TO   FLOW OUT OF   OVRLND.     DIRECT     STREAM       STREAM     STREAM     STREAM   STREAMBED  STREAMBED
                SEG.NO.  NO.  STRM. RCH.    AQUIFER    STRM. RCH.    RUNOFF     PRECIP       ET          HEAD       DEPTH      WIDTH   CONDCTNC.   GRADIENT

   1    1    1     1     1    5.8202E+01  3.6567E-01   5.7837E+01  0.000E+00  0.000E+00  0.000E+00  1.09455E+03  1.503E+00  1.804E+01  8.120E-02  1.501E+00
   1    2    2     1     2    5.7837E+01  5.6626E-01   5.7270E+01  0.000E+00  0.000E+00  0.000E+00  1.08956E+03  1.498E+00  1.799E+01  1.259E-01  1.499E+00
   1    3    3     1     3    5.7270E+01  4.8288E-01   5.6788E+01  0.000E+00  0.000E+00  0.000E+00  1.08391E+03  1.491E+00  1.792E+01  1.075E-01  1.497E+00
   1    3    4     1     4    5.6788E+01  4.4463E-01   5.6343E+01  0.000E+00  0.000E+00  0.000E+00  1.07889E+03  1.485E+00  1.786E+01  9.913E-02  1.495E+00
   1    4    5     2     1    5.4343E+01  3.8376E-01   5.3959E+01  0.000E+00  0.000E+00  0.000E+00  1.07385E+03  1.920E+00  1.200E+01  7.800E-02  1.640E+00
   1    5    6     2     2    5.3959E+01  2.9477E-01   5.3664E+01  0.000E+00  0.000E+00  0.000E+00  1.06842E+03  1.913E+00  1.200E+01  6.000E-02  1.638E+00
   1    6    6     2     3    5.3664E+01  2.9439E-01   5.3370E+01  0.000E+00  0.000E+00  0.000E+00  1.06370E+03  1.907E+00  1.200E+01  6.000E-02  1.636E+00
   1    7    6     2     4    5.3370E+01  2.9401E-01   5.3076E+01  0.000E+00  0.000E+00  0.000E+00  1.05898E+03  1.900E+00  1.200E+01  6.000E-02  1.633E+00
   1    8    6     2     5    5.3076E+01  2.9364E-01   5.2782E+01  0.000E+00  0.000E+00  0.000E+00  1.05425E+03  1.894E+00  1.200E+01  6.000E-02  1.631E+00
   1    3    5     3     1    2.0000E+00  2.8252E-01   1.7175E+00  0.000E+00  0.000E+00  0.000E+00  1.07555E+03  1.909E+00  9.636E+00  7.227E-02  1.955E+00
   1    3    6     3     2    1.7175E+00  2.4905E-01   1.4684E+00  0.000E+00  0.000E+00  0.000E+00  1.07264E+03  1.727E+00  8.909E+00  6.682E-02  1.864E+00
   1    3    7     3     3    1.4684E+00  1.9718E-01   1.2712E+00  0.000E+00  0.000E+00  0.000E+00  1.06987E+03  1.555E+00  8.218E+00  5.547E-02  1.777E+00
   1    4    8     3     4    1.2712E+00  2.2567E-01   1.0456E+00  0.000E+00  0.000E+00  0.000E+00  1.06682E+03  1.364E+00  7.455E+00  6.709E-02  1.682E+00
   1    5    8     3     5    1.0456E+00  1.5790E-01   8.8768E-01  0.000E+00  0.000E+00  0.000E+00  1.06362E+03  1.164E+00  6.655E+00  4.991E-02  1.582E+00
   1    6    8     3     6    8.8768E-01  5.5980E-02   8.3170E-01  0.000E+00  0.000E+00  0.000E+00  1.06158E+03  1.036E+00  6.145E+00  1.844E-02  1.518E+00
   1    5   10     4     1    1.0000E+01  9.0919E-02   9.9091E+00  0.000E+00  0.000E+00  0.000E+00  1.07836E+03  6.368E-01  1.000E+01  2.500E-02  1.212E+00
   1    5    9     4     2    9.9091E+00  1.8158E-01   9.7275E+00  0.000E+00  0.000E+00  0.000E+00  1.07154E+03  6.315E-01  1.000E+01  5.000E-02  1.211E+00
   1    6    8     4     3    9.7275E+00  1.2689E-01   9.6006E+00  0.000E+00  0.000E+00  0.000E+00  1.06381E+03  6.256E-01  1.000E+01  3.500E-02  1.209E+00
   1    6    8     5     1    1.0432E+01  2.2686E-01   1.0205E+01  0.000E+00  0.000E+00  0.000E+00  1.05868E+03  6.790E-01  1.542E+01  6.166E-02  1.226E+00
   1    7    7     5     2    1.0205E+01  2.7894E-01   9.9265E+00  0.000E+00  0.000E+00  0.000E+00  1.05417E+03  6.732E-01  1.519E+01  7.594E-02  1.224E+00
   1    8    7     5     3    9.9265E+00  1.9221E-01   9.7343E+00  0.000E+00  0.000E+00  0.000E+00  1.04992E+03  6.676E-01  1.497E+01  5.241E-02  1.223E+00
   1    8    6     5     4    9.7343E+00  1.3577E-01   9.5985E+00  0.000E+00  0.000E+00  0.000E+00  1.04691E+03  6.637E-01  1.482E+01  3.706E-02  1.221E+00
   1    9    6     6     1    6.2381E+01  3.0662E-01   6.2074E+01  0.000E+00  0.000E+00  0.000E+00  1.04484E+03  2.110E+00  1.200E+01  6.000E-02  1.703E+00
   1   10    7     6     2    6.2074E+01  3.0625E-01   6.1768E+01  0.000E+00  0.000E+00  0.000E+00  1.04029E+03  2.104E+00  1.200E+01  6.000E-02  1.701E+00
   1   11    7     6     3    6.1768E+01  3.0587E-01   6.1462E+01  0.000E+00  0.000E+00  0.000E+00  1.03573E+03  2.098E+00  1.200E+01  6.000E-02  1.699E+00
   1   12    7     6     4    6.1462E+01  3.0550E-01   6.1157E+01  0.000E+00  0.000E+00  0.000E+00  1.03118E+03  2.092E+00  1.200E+01  6.000E-02  1.697E+00
   1   13    7     6     5    6.1157E+01  2.1310E-02   6.1135E+01  0.000E+00  0.000E+00  0.000E+00  1.02800E+03  2.088E+00  1.200E+01  2.400E-02  2.960E-01
   1   14    9     7     1    1.5000E+02  1.3310E+00   1.4867E+02  0.000E+00  0.000E+00  0.000E+00  1.03987E+03  2.288E+00  5.529E+01  5.593E-01  7.932E-01
   1   13    8     7     2    1.4867E+02  1.8225E+00   1.4685E+02  0.000E+00  0.000E+00  0.000E+00  1.03478E+03  2.279E+00  5.526E+01  6.148E-01  9.882E-01
   1   13    7     7     3    1.4685E+02  1.4411E+00   1.4541E+02  0.000E+00  0.000E+00  0.000E+00  1.02969E+03  2.271E+00  5.522E+01  5.585E-01  8.602E-01
   1   13    6     8     1    2.0654E+02  1.0377E+00   2.0550E+02  0.000E+00  0.000E+00  0.000E+00  1.02505E+03  3.173E+00  4.601E+01  4.688E-01  7.378E-01
   1   13    5     8     2    2.0550E+02  2.3715E-01   2.0527E+02  0.000E+00  0.000E+00  0.000E+00  1.01879E+03  3.169E+00  4.595E+01  4.683E-01  1.688E-01
   1   13    4     8     3    2.0527E+02 -2.2833E+00   2.0755E+02  0.000E+00  0.000E+00  0.000E+00  1.01255E+03  3.175E+00  4.604E+01  4.691E+00 -1.622E-01
   1   13    3     8     4    2.0755E+02 -3.5243E+00   2.1107E+02  0.000E+00  0.000E+00  0.000E+00  1.00632E+03  3.192E+00  4.628E+01  4.716E+00 -2.491E-01
   1   13    2     8     5    2.1107E+02 -2.6402E+00   2.1371E+02  0.000E+00  0.000E+00  0.000E+00  1.00008E+03  3.209E+00  4.653E+01  4.742E+00 -1.856E-01
   1   13    1     8     6    2.1371E+02 -2.0521E+00   2.1577E+02  0.000E+00  0.000E+00  0.000E+00  9.95098E+02  3.223E+00  4.673E+01  2.857E+00 -2.394E-01



 UBDSV3 SAVING "           GW ET" ON UNIT  61 AT TIME STEP  1, STRESS PERIOD  19
 UBDSV3 SAVING "    UZF RECHARGE" ON UNIT  61 AT TIME STEP  1, STRESS PERIOD  19
 UBDSV3 SAVING " SURFACE LEAKAGE" ON UNIT  61 AT TIME STEP  1, STRESS PERIOD  19
 UBDSV3 SAVING "       HORT+DUNN" ON UNIT  61 AT TIME STEP  1, STRESS PERIOD  19
 UBDSV3 SAVING "  STORAGE CHANGE" ON UNIT  61 AT TIME STEP  1, STRESS PERIOD  19


UNSATURATED ZONE PACKAGE VOLUMETRIC BUDGET FOR  TIME STEP     1 STRESS PERIOD   19
  ------------------------------------------------------------------------------



     CUMULATIVE VOLUMES      L**3       RATES FOR THIS TIME STEP      L**3/T
     ------------------                 ------------------------

           IN:                                      IN:
           ---                                      ---
        INFILTRATION =   625988271.6929          INFILTRATION =          26.5993

          OUT:                                     OUT:
          ----                                     ----
              UZF ET =   569071393.6720                UZF ET =          26.6075
        UZF RECHARGE =      797071.6500          UZF RECHARGE =       0.0000E+00

            IN - OUT =    56119806.3709              IN - OUT =      -8.1987E-03

          STORAGE:                                 STORAGE:
          --------                                 --------
      STORAGE CHANGE =    56121460.0251        STORAGE CHANGE =      -8.1993E-03

 PERCENT DISCREPANCY IS DIFFERENCE BETWEEN IN-OUT MINUS CHANGE IN STORAGE
 DIVIDED BY THE AVERAGE OF IN AND OUT TIMES 100

 PERCENT DISCREPANCY =          -0.00     PERCENT DISCREPANCY =           0.00






 

            AG WELLS      PERIOD   19   STEP   1
 AG WELL      1   LAYER   1   ROW     6   COL     4   RATE    -3.72010    
 AG WELL      2   LAYER   1   ROW     6   COL     5   RATE    -3.71047    
 AG WELL      3   LAYER   1   ROW     7   COL     4   RATE    -3.71912    
 AG WELL      4   LAYER   1   ROW     7   COL     5   RATE    -3.69833    
 AG WELL      5   LAYER   1   ROW     8   COL     4   RATE    -3.71912    
 AG WELL      6   LAYER   1   ROW     8   COL     5   RATE    -3.62466    
 
 

        GW IRRIGATION     PERIOD   19   STEP   1
 AG WELL      1   ROW     6   COL     4   RATE     3.72010    
 AG WELL      2   ROW     6   COL     5   RATE     3.71047    
 AG WELL      3   ROW     7   COL     4   RATE     3.71912    
 AG WELL      4   ROW     7   COL     5   RATE     3.69833    
 AG WELL      5   ROW     8   COL     4   RATE     3.71912    
 AG WELL      6   ROW     8   COL     5   RATE     3.62466    
 
1
  VOLUMETRIC BUDGET FOR ENTIRE MODEL AT END OF TIME STEP    1, STRESS PERIOD  19
  ------------------------------------------------------------------------------

     CUMULATIVE VOLUMES      L**3       RATES FOR THIS TIME STEP      L**3/T
     ------------------                 ------------------------

           IN:                                      IN:
           ---                                      ---
               AG WELLS  =   428469248.0000                 AG WELLS  =          22.1918
      DIVERSION SEGMENTS =           0.0000        DIVERSION SEGMENTS =           0.0000
           GW IRRIGATION =           0.0000             GW IRRIGATION =           0.0000
           SW IRRIGATION =           0.0000             SW IRRIGATION =           0.0000
        SYSTEM LOSSES GW =           0.0000          SYSTEM LOSSES GW =           0.0000
        SYSTEM LOSSES SW =           0.0000          SYSTEM LOSSES SW =           0.0000

                TOTAL IN =   428469248.0000                  TOTAL IN =          22.1918

          OUT:                                     OUT:
          ----                                     ----
               AG WELLS  =           0.0000                 AG WELLS  =           0.0000
      DIVERSION SEGMENTS =           0.0000        DIVERSION SEGMENTS =           0.0000
           GW IRRIGATION =   428469248.0000             GW IRRIGATION =          22.1918
           SW IRRIGATION =           0.0000             SW IRRIGATION =           0.0000
        SYSTEM LOSSES GW =           0.0000          SYSTEM LOSSES GW =           0.0000
        SYSTEM LOSSES SW =           0.0000          SYSTEM LOSSES SW =           0.0000

               TOTAL OUT =   428469248.0000                 TOTAL OUT =          22.1918

                IN - OUT =           0.0000                  IN - OUT =           0.0000

     PERCENT DISCREPANCY =           0.00         PERCENT DISCREPANCY =           0.00



1
  VOLUMETRIC BUDGET FOR ENTIRE MODEL AT END OF TIME STEP    1, STRESS PERIOD  19
  ------------------------------------------------------------------------------

     CUMULATIVE VOLUMES      L**3       RATES FOR THIS TIME STEP      L**3/T
     ------------------                 ------------------------

           IN:                                      IN:
           ---                                      ---
             STORAGE     =   597130688.0000               STORAGE     =          21.0993
       CONSTANT HEAD     =           0.0000         CONSTANT HEAD     =           0.0000
     HEAD DEP BOUNDS     =    12810335.0000       HEAD DEP BOUNDS     =           0.2854
      STREAM LEAKAGE     =   562898752.0000        STREAM LEAKAGE     =          12.9365
        UZF RECHARGE     =      797071.5625          UZF RECHARGE     =           0.0000
               GW ET     =           0.0000                 GW ET     =           0.0000
     SURFACE LEAKAGE     =           0.0000       SURFACE LEAKAGE     =           0.0000
           AG WELLS      =           0.0000             AG WELLS      =           0.0000

                TOTAL IN =  1173636736.0000                  TOTAL IN =          34.3212

          OUT:                                     OUT:
          ----                                     ----
             STORAGE     =   252970400.0000               STORAGE     =           0.5878
       CONSTANT HEAD     =           0.0000         CONSTANT HEAD     =           0.0000
     HEAD DEP BOUNDS     =    13225632.0000       HEAD DEP BOUNDS     =           0.2970
      STREAM LEAKAGE     =   463827712.0000        STREAM LEAKAGE     =          10.4999
        UZF RECHARGE     =           0.0000          UZF RECHARGE     =           0.0000
               GW ET     =    15145386.0000                 GW ET     =           0.7448
     SURFACE LEAKAGE     =           0.0000       SURFACE LEAKAGE     =           0.0000
           AG WELLS      =   428469248.0000             AG WELLS      =          22.1918

               TOTAL OUT =  1173638400.0000                 TOTAL OUT =          34.3213

                IN - OUT =       -1664.0000                  IN - OUT =      -6.8665E-05

     PERCENT DISCREPANCY =          -0.00         PERCENT DISCREPANCY =          -0.00






         TIME SUMMARY AT END OF TIME STEP    1 IN STRESS PERIOD   19
                    SECONDS     MINUTES      HOURS       DAYS        YEARS
                    -----------------------------------------------------------
   TIME STEP LENGTH  87667.      1461.1      24.352      1.0147     2.77799E-03
 STRESS PERIOD TIME  87667.      1461.1      24.352      1.0147     2.77799E-03
         TOTAL TIME 4.48841E+07 7.48069E+05  12468.      519.49      1.4223    
1
 
 SOLVING FOR HEAD 
                                                   Max.-Head-Change                         Max.-Flux-Residual
  Residual-Control   Outer-Iter.   Inner-Iter.     Column Row Layer    Maximum-Head-Change  Column Row Layer    Maximum-Flux-Residual          L2-NORM 
          0                 1           2             4    7     1      -0.5672541400E-01       4    7    1        -0.2966866161E+01      0.6961356957E+01
          0                 2           2             4    7     1       0.5517806669E-02       4    7    1         0.2966847435E+00      0.6960543118E+00
          0                 3           2             4    7     1      -0.3757424648E-03       4    7    1        -0.2076795873E-01      0.4871712258E-01
          0                 4           1             4    7     1       0.1495114299E-04       4    7    1         0.8494106187E-03      0.1992123996E-02

    ------------------------------------------------
       NWT REQUIRED            4 OUTER ITERATIONS 
       AND A TOTAL OF          7 INNER ITERATIONS.
    ------------------------------------------------

 NO OUTPUT CONTROL FOR STRESS PERIOD   19   TIME STEP    2
 
 SOLVING FOR HEAD 
                                                   Max.-Head-Change                         Max.-Flux-Residual
  Residual-Control   Outer-Iter.   Inner-Iter.     Column Row Layer    Maximum-Head-Change  Column Row Layer    Maximum-Flux-Residual          L2-NORM 
          0                 1           2             4    7     1      -0.5633988631E-01       4    7    1        -0.2947752739E+01      0.6843213853E+01
          0                 2           2             4    7     1       0.5480303271E-02       4    7    1         0.2947732570E+00      0.6842603658E+00
          0                 3           2             4    7     1      -0.3731886427E-03       4    7    1        -0.2063415599E-01      0.4789333211E-01
          0                 4           1             4    7     1       0.1484952366E-04       4    7    1         0.8439380640E-03      0.1958552366E-02

    ------------------------------------------------
       NWT REQUIRED            4 OUTER ITERATIONS 
       AND A TOTAL OF          7 INNER ITERATIONS.
    ------------------------------------------------

 NO OUTPUT CONTROL FOR STRESS PERIOD   19   TIME STEP    3
 
 SOLVING FOR HEAD 
                                                   Max.-Head-Change                         Max.-Flux-Residual
  Residual-Control   Outer-Iter.   Inner-Iter.     Column Row Layer    Maximum-Head-Change  Column Row Layer    Maximum-Flux-Residual          L2-NORM 
          0                 1           2             4    7     1      -0.5593815464E-01       4    7    1        -0.2927704992E+01      0.6731751778E+01
          0                 2           2             4    7     1       0.5441223922E-02       4    7    1         0.2927683553E+00      0.6731288767E+00
          0                 3           2             4    7     1      -0.3705275014E-03       4    7    1        -0.2049381400E-01      0.4711546691E-01
          0                 4           1             4    7     1       0.1474363435E-04       4    7    1         0.8381980690E-03      0.1926791110E-02

    ------------------------------------------------
       NWT REQUIRED            4 OUTER ITERATIONS 
       AND A TOTAL OF          7 INNER ITERATIONS.
    ------------------------------------------------

 NO OUTPUT CONTROL FOR STRESS PERIOD   19   TIME STEP    4
 
 SOLVING FOR HEAD 
                                                   Max.-Head-Change                         Max.-Flux-Residual
  Residual-Control   Outer-Iter.   Inner-Iter.     Column Row Layer    Maximum-Head-Change  Column Row Layer    Maximum-Flux-Residual          L2-NORM 
          0                 1           2             4    7     1      -0.5552193329E-01       4    7    1        -0.2906817798E+01      0.6626093874E+01
          0                 2           2             4    7     1       0.5400735356E-02       4    7    1         0.2906795248E+00      0.6625736236E+00
          0                 3           2             4    7     1      -0.3677703955E-03       4    7    1        -0.2034759686E-01      0.4637757674E-01
          0                 4           1             4    7     1       0.1463392650E-04       4    7    1         0.8322177587E-03      0.1896675902E-02

    ------------------------------------------------
       NWT REQUIRED            4 OUTER ITERATIONS 
       AND A TOTAL OF          7 INNER ITERATIONS.
    ------------------------------------------------

 NO OUTPUT CONTROL FOR STRESS PERIOD   19   TIME STEP    5
 
 SOLVING FOR HEAD 
                                                   Max.-Head-Change                         Max.-Flux-Residual
  Residual-Control   Outer-Iter.   Inner-Iter.     Column Row Layer    Maximum-Head-Change  Column Row Layer    Maximum-Flux-Residual          L2-NORM 
          0                 1           2             4    7     1      -0.5509281966E-01       4    7    1        -0.2885179804E+01      0.6525564262E+01
          0                 2           2             4    7     1       0.5358992936E-02       4    7    1         0.2885156290E+00      0.6525282183E+00
          0                 3           2             4    7     1      -0.3649279053E-03       4    7    1        -0.2019612501E-01      0.4567500687E-01
          0                 4           1             4    7     1       0.1452082135E-04       4    7    1         0.8260225627E-03      0.1867972442E-02

    ------------------------------------------------
       NWT REQUIRED            4 OUTER ITERATIONS 
       AND A TOTAL OF          7 INNER ITERATIONS.
    ------------------------------------------------

 NO OUTPUT CONTROL FOR STRESS PERIOD   19   TIME STEP    6
 
 SOLVING FOR HEAD 
                                                   Max.-Head-Change                         Max.-Flux-Residual
  Residual-Control   Outer-Iter.   Inner-Iter.     Column Row Layer    Maximum-Head-Change  Column Row Layer    Maximum-Flux-Residual          L2-NORM 
          0                 1           2             4    7     1      -0.5465232635E-01       4    7    1        -0.2862874074E+01      0.6429661373E+01
          0                 2           2             4    7     1       0.5316143783E-02       4    7    1         0.2862849732E+00      0.6429435921E+00
          0                 3           2             4    7     1      -0.3620100480E-03       4    7    1        -0.2003997981E-01      0.4500458008E-01
          0                 4           1             4    7     1       0.1440471700E-04       4    7    1         0.8196362094E-03      0.1840584352E-02

    ------------------------------------------------
       NWT REQUIRED            4 OUTER ITERATIONS 
       AND A TOTAL OF          7 INNER ITERATIONS.
    ------------------------------------------------

 NO OUTPUT CONTROL FOR STRESS PERIOD   19   TIME STEP    7
 
 SOLVING FOR HEAD 
                                                   Max.-Head-Change                         Max.-Flux-Residual
  Residual-Control   Outer-Iter.   Inner-Iter.     Column Row Layer    Maximum-Head-Change  Column Row Layer    Maximum-Flux-Residual          L2-NORM 
          0                 1           2             4    7     1      -0.5420172028E-01       4    7    1        -0.2839971676E+01      0.6337942312E+01
          0                 2           2             4    7     1       0.5272311115E-02       4    7    1         0.2839946630E+00      0.6337758647E+00
          0                 3           2             4    7     1      -0.3590252152E-03       4    7    1        -0.1987965870E-01      0.4436319401E-01
          0                 4           1             4    7     1       0.1428594769E-04       4    7    1         0.8130790543E-03      0.1814365691E-02

    ------------------------------------------------
       NWT REQUIRED            4 OUTER ITERATIONS 
       AND A TOTAL OF          7 INNER ITERATIONS.
    ------------------------------------------------

 NO OUTPUT CONTROL FOR STRESS PERIOD   19   TIME STEP    8
 
 SOLVING FOR HEAD 
                                                   Max.-Head-Change                         Max.-Flux-Residual
  Residual-Control   Outer-Iter.   Inner-Iter.     Column Row Layer    Maximum-Head-Change  Column Row Layer    Maximum-Flux-Residual          L2-NORM 
          0                 1           2             4    7     1      -0.5374232830E-01       4    7    1        -0.2816545662E+01      0.6250073765E+01
          0                 2           2             4    7     1       0.5227623984E-02       4    7    1         0.2816520027E+00      0.6249922071E+00
          0                 3           2             4    7     1      -0.3559821954E-03       4    7    1        -0.1971567295E-01      0.4374871407E-01
          0                 4           1             4    7     1       0.1416486304E-04       4    7    1         0.8063720429E-03      0.1789244182E-02

    ------------------------------------------------
       NWT REQUIRED            4 OUTER ITERATIONS 
       AND A TOTAL OF          7 INNER ITERATIONS.
    ------------------------------------------------

 NO OUTPUT CONTROL FOR STRESS PERIOD   19   TIME STEP    9
 
 SOLVING FOR HEAD 
                                                   Max.-Head-Change                         Max.-Flux-Residual
  Residual-Control   Outer-Iter.   Inner-Iter.     Column Row Layer    Maximum-Head-Change  Column Row Layer    Maximum-Flux-Residual          L2-NORM 
          0                 1           2             4    7     1      -0.5327550620E-01       4    7    1        -0.2792671710E+01      0.6165748723E+01
          0                 2           2             4    7     1       0.5182214257E-02       4    7    1         0.2792645588E+00      0.6165619516E+00
          0                 3           2             4    7     1      -0.3528899678E-03       4    7    1        -0.1954855227E-01      0.4315871459E-01
          0                 4           1             4    7     1       0.1404182042E-04       4    7    1         0.7995368001E-03      0.1765158820E-02

    ------------------------------------------------
       NWT REQUIRED            4 OUTER ITERATIONS 
       AND A TOTAL OF          7 INNER ITERATIONS.
    ------------------------------------------------

 NO OUTPUT CONTROL FOR STRESS PERIOD   19   TIME STEP   10
 
 SOLVING FOR HEAD 
                                                   Max.-Head-Change                         Max.-Flux-Residual
  Residual-Control   Outer-Iter.   Inner-Iter.     Column Row Layer    Maximum-Head-Change  Column Row Layer    Maximum-Flux-Residual          L2-NORM 
          0                 1           2             4    7     1      -0.5280212890E-01       4    7    1        -0.2768398282E+01      0.6084721514E+01
          0                 2           2             4    7     1       0.5136167027E-02       4    7    1         0.2768371771E+00      0.6084609913E+00
          0                 3           2             4    7     1      -0.3497543274E-03       4    7    1        -0.1937863586E-01      0.4259175331E-01
          0                 4           1             4    7     1       0.1391705053E-04       4    7    1         0.7925871973E-03      0.1741983945E-02

    ------------------------------------------------
       NWT REQUIRED            4 OUTER ITERATIONS 
       AND A TOTAL OF          7 INNER ITERATIONS.
    ------------------------------------------------

 NO OUTPUT CONTROL FOR STRESS PERIOD   19   TIME STEP   11
 
 SOLVING FOR HEAD 
                                                   Max.-Head-Change                         Max.-Flux-Residual
  Residual-Control   Outer-Iter.   Inner-Iter.     Column Row Layer    Maximum-Head-Change  Column Row Layer    Maximum-Flux-Residual          L2-NORM 
          0                 1           2             4    7     1      -0.5232354100E-01       4    7    1        -0.2743800410E+01      0.6006766032E+01
          0                 2           2             4    7     1       0.5089613074E-02       4    7    1         0.2743773596E+00      0.6006668563E+00
          0                 3           2             4    7     1      -0.3465841792E-03       4    7    1        -0.1920644883E-01      0.4204628836E-01
          0                 4           1             4    7     1       0.1379090672E-04       4    7    1         0.7855447220E-03      0.1719614655E-02

    ------------------------------------------------
       NWT REQUIRED            4 OUTER ITERATIONS 
       AND A TOTAL OF          7 INNER ITERATIONS.
    ------------------------------------------------

 NO OUTPUT CONTROL FOR STRESS PERIOD   19   TIME STEP   12
 
 SOLVING FOR HEAD 
                                                   Max.-Head-Change                         Max.-Flux-Residual
  Residual-Control   Outer-Iter.   Inner-Iter.     Column Row Layer    Maximum-Head-Change  Column Row Layer    Maximum-Flux-Residual          L2-NORM 
          0                 1           2             4    7     1      -0.5184045559E-01       4    7    1        -0.2718918147E+01      0.5931684099E+01
          0                 2           2             4    7     1       0.5042621751E-02       4    7    1         0.2718891112E+00      0.5931597679E+00
          0                 3           2             4    7     1      -0.3433842479E-03       4    7    1        -0.1903227159E-01      0.4152085749E-01
          0                 4           1             4    7     1       0.1366357905E-04       4    7    1         0.7784208951E-03      0.1698164557E-02

    ------------------------------------------------
       NWT REQUIRED            4 OUTER ITERATIONS 
       AND A TOTAL OF          7 INNER ITERATIONS.
    ------------------------------------------------

 NO OUTPUT CONTROL FOR STRESS PERIOD   19   TIME STEP   13
 
 SOLVING FOR HEAD 
                                                   Max.-Head-Change                         Max.-Flux-Residual
  Residual-Control   Outer-Iter.   Inner-Iter.     Column Row Layer    Maximum-Head-Change  Column Row Layer    Maximum-Flux-Residual          L2-NORM 
          0                 1           2             4    7     1      -0.5135392553E-01       4    7    1        -0.2693810059E+01      0.5859306654E+01
          0                 2           2             4    7     1       0.4995295481E-02       4    7    1         0.2693782873E+00      0.5859229656E+00
          0                 3           2             4    7     1      -0.3401615006E-03       4    7    1        -0.1885651398E-01      0.4101438121E-01
          0                 4           1             4    7     1       0.1353534279E-04       4    7    1         0.7712323893E-03      0.1677489320E-02

    ------------------------------------------------
       NWT REQUIRED            4 OUTER ITERATIONS 
       AND A TOTAL OF          7 INNER ITERATIONS.
    ------------------------------------------------

 NO OUTPUT CONTROL FOR STRESS PERIOD   19   TIME STEP   14
 
 SOLVING FOR HEAD 
                                                   Max.-Head-Change                         Max.-Flux-Residual
  Residual-Control   Outer-Iter.   Inner-Iter.     Column Row Layer    Maximum-Head-Change  Column Row Layer    Maximum-Flux-Residual          L2-NORM 
          0                 1           2             4    7     1      -0.5086480723E-01       4    7    1        -0.2668524094E+01      0.5789468989E+01
          0                 2           2             4    7     1       0.4947716729E-02       4    7    1         0.2668496822E+00      0.5789408851E+00
          0                 3           2             4    7     1      -0.3369202960E-03       4    7    1        -0.1867951163E-01      0.4047660311E-01
          0                 4           1             4    7     1       0.1340637201E-04       4    7    1         0.7639929663E-03      0.1655480125E-02

    ------------------------------------------------
       NWT REQUIRED            4 OUTER ITERATIONS 
       AND A TOTAL OF          7 INNER ITERATIONS.
    ------------------------------------------------

 NO OUTPUT CONTROL FOR STRESS PERIOD   19   TIME STEP   15
 
 SOLVING FOR HEAD 
                                                   Max.-Head-Change                         Max.-Flux-Residual
  Residual-Control   Outer-Iter.   Inner-Iter.     Column Row Layer    Maximum-Head-Change  Column Row Layer    Maximum-Flux-Residual          L2-NORM 
          0                 1           2             4    7     1      -0.5037388737E-01       4    7    1        -0.2643104155E+01      0.5722032820E+01
          0                 2           2             4    7     1       0.4899976311E-02       4    7    1         0.2643076858E+00      0.5726469117E+00
          0                 3           2             4    7     1      -0.3336706192E-03       4    7    1        -0.1850157181E-01      0.4008511996E-01
          0                 4           1             4    7     1       0.1327706449E-04       4    7    1         0.7567152124E-03      0.1639474396E-02

    ------------------------------------------------
       NWT REQUIRED            4 OUTER ITERATIONS 
       AND A TOTAL OF          7 INNER ITERATIONS.
    ------------------------------------------------

 NO OUTPUT CONTROL FOR STRESS PERIOD   19   TIME STEP   16
 
 SOLVING FOR HEAD 
                                                   Max.-Head-Change                         Max.-Flux-Residual
  Residual-Control   Outer-Iter.   Inner-Iter.     Column Row Layer    Maximum-Head-Change  Column Row Layer    Maximum-Flux-Residual          L2-NORM 
          0                 1           2             4    7     1      -0.4988170406E-01       4    7    1        -0.2617583125E+01      0.5656471819E+01
          0                 2           2             4    7     1       0.4852088932E-02       4    7    1         0.2617555852E+00      0.5656423944E+00
          0                 3           2             4    7     1      -0.3304096663E-03       4    7    1        -0.1832292469E-01      0.3959484109E-01
          0                 4           1             4    7     1       0.1314730832E-04       4    7    1         0.7494085496E-03      0.1619420620E-02

    ------------------------------------------------
       NWT REQUIRED            4 OUTER ITERATIONS 
       AND A TOTAL OF          7 INNER ITERATIONS.
    ------------------------------------------------

 NO OUTPUT CONTROL FOR STRESS PERIOD   19   TIME STEP   17
 
 SOLVING FOR HEAD 
                                                   Max.-Head-Change                         Max.-Flux-Residual
  Residual-Control   Outer-Iter.   Inner-Iter.     Column Row Layer    Maximum-Head-Change  Column Row Layer    Maximum-Flux-Residual          L2-NORM 
          0                 1           2             4    7     1      -0.4938909968E-01       4    7    1        -0.2592005645E+01      0.5593049040E+01
          0                 2           2             4    7     1       0.4804172077E-02       4    7    1         0.2591978447E+00      0.5593004560E+00
          0                 3           2             4    7     1      -0.3271467051E-03       4    7    1        -0.1814388271E-01      0.3915092426E-01
          0                 4           1             4    7     1       0.1301747225E-04       4    7    1         0.7420857346E-03      0.1601258554E-02

    ------------------------------------------------
       NWT REQUIRED            4 OUTER ITERATIONS 
       AND A TOTAL OF          7 INNER ITERATIONS.
    ------------------------------------------------

 NO OUTPUT CONTROL FOR STRESS PERIOD   19   TIME STEP   18
 
 SOLVING FOR HEAD 
                                                   Max.-Head-Change                         Max.-Flux-Residual
  Residual-Control   Outer-Iter.   Inner-Iter.     Column Row Layer    Maximum-Head-Change  Column Row Layer    Maximum-Flux-Residual          L2-NORM 
          0                 1           2             4    7     1      -0.4889667645E-01       4    7    1        -0.2566405976E+01      0.5531701248E+01
          0                 2           2             4    7     1       0.4756272907E-02       4    7    1         0.2566378896E+00      0.5531659437E+00
          0                 3           2             4    7     1      -0.3238849471E-03       4    7    1        -0.1796468566E-01      0.3872152059E-01
          0                 4           1             4    7     1       0.1288768349E-04       4    7    1         0.7347565477E-03      0.1583701779E-02

    ------------------------------------------------
       NWT REQUIRED            4 OUTER ITERATIONS 
       AND A TOTAL OF          7 INNER ITERATIONS.
    ------------------------------------------------

 NO OUTPUT CONTROL FOR STRESS PERIOD   19   TIME STEP   19
 
 SOLVING FOR HEAD 
                                                   Max.-Head-Change                         Max.-Flux-Residual
  Residual-Control   Outer-Iter.   Inner-Iter.     Column Row Layer    Maximum-Head-Change  Column Row Layer    Maximum-Flux-Residual          L2-NORM 
          0                 1           2             4    7     1      -0.4840485171E-01       4    7    1        -0.2540808602E+01      0.5472303516E+01
          0                 2           2             4    7     1       0.4708432010E-02       4    7    1         0.2540781677E+00      0.5472264122E+00
          0                 3           2             4    7     1      -0.3206271570E-03       4    7    1        -0.1778550490E-01      0.3830578652E-01
          0                 4           1             4    7     1       0.1275805292E-04       4    7    1         0.7274280429E-03      0.1566700816E-02

    ------------------------------------------------
       NWT REQUIRED            4 OUTER ITERATIONS 
       AND A TOTAL OF          7 INNER ITERATIONS.
    ------------------------------------------------

 NO OUTPUT CONTROL FOR STRESS PERIOD   19   TIME STEP   20
 
 SOLVING FOR HEAD 
                                                   Max.-Head-Change                         Max.-Flux-Residual
  Residual-Control   Outer-Iter.   Inner-Iter.     Column Row Layer    Maximum-Head-Change  Column Row Layer    Maximum-Flux-Residual          L2-NORM 
          0                 1           2             4    7     1      -0.4791429375E-01       4    7    1        -0.2515250099E+01      0.5414775125E+01
          0                 2           2             4    7     1       0.4660714386E-02       4    7    1         0.2515223364E+00      0.5414737743E+00
          0                 3           2             4    7     1      -0.3173777612E-03       4    7    1        -0.1760659647E-01      0.3790310673E-01
          0                 4           1             4    7     1       0.1262875657E-04       4    7    1         0.7201106889E-03      0.1550232342E-02

    ------------------------------------------------
       NWT REQUIRED            4 OUTER ITERATIONS 
       AND A TOTAL OF          7 INNER ITERATIONS.
    ------------------------------------------------

 NO OUTPUT CONTROL FOR STRESS PERIOD   19   TIME STEP   21
 
 SOLVING FOR HEAD 
                                                   Max.-Head-Change                         Max.-Flux-Residual
  Residual-Control   Outer-Iter.   Inner-Iter.     Column Row Layer    Maximum-Head-Change  Column Row Layer    Maximum-Flux-Residual          L2-NORM 
          0                 1           2             4    7     1      -0.4742546290E-01       4    7    1        -0.2489757053E+01      0.5359007363E+01
          0                 2           2             4    7     1       0.4613164808E-02       4    7    1         0.2489730539E+00      0.5358971788E+00
          0                 3           2             4    7     1      -0.3141398081E-03       4    7    1        -0.1742814640E-01      0.3751276828E-01
          0                 4           1             4    7     1       0.1249991577E-04       4    7    1         0.7128120858E-03      0.1534269149E-02

    ------------------------------------------------
       NWT REQUIRED            4 OUTER ITERATIONS 
       AND A TOTAL OF          7 INNER ITERATIONS.
    ------------------------------------------------

 NO OUTPUT CONTROL FOR STRESS PERIOD   19   TIME STEP   22
 
 SOLVING FOR HEAD 
                                                   Max.-Head-Change                         Max.-Flux-Residual
  Residual-Control   Outer-Iter.   Inner-Iter.     Column Row Layer    Maximum-Head-Change  Column Row Layer    Maximum-Flux-Residual          L2-NORM 
          0                 1           2             4    7     1      -0.4693866546E-01       4    7    1        -0.2464346938E+01      0.5304915539E+01
          0                 2           2             4    7     1       0.4565813066E-02       4    7    1         0.2464320673E+00      0.5304881466E+00
          0                 3           2             4    7     1      -0.3109153260E-03       4    7    1        -0.1725027702E-01      0.3713413875E-01
          0                 4           1             4    7     1       0.1237161021E-04       4    7    1         0.7055371930E-03      0.1518785612E-02

    ------------------------------------------------
       NWT REQUIRED            4 OUTER ITERATIONS 
       AND A TOTAL OF          7 INNER ITERATIONS.
    ------------------------------------------------

 NO OUTPUT CONTROL FOR STRESS PERIOD   19   TIME STEP   23
 
 SOLVING FOR HEAD 
                                                   Max.-Head-Change                         Max.-Flux-Residual
  Residual-Control   Outer-Iter.   Inner-Iter.     Column Row Layer    Maximum-Head-Change  Column Row Layer    Maximum-Flux-Residual          L2-NORM 
          0                 1           2             4    7     1      -0.4645443697E-01       4    7    1        -0.2439049616E+01      0.5252438084E+01
          0                 2           2             4    7     1       0.4518711248E-02       4    7    1         0.2439023623E+00      0.5252405427E+00
          0                 3           2             4    7     1      -0.3077078627E-03       4    7    1        -0.1707319733E-01      0.3676681469E-01
          0                 4           1             4    7     1       0.1224398228E-04       4    7    1         0.6982946243E-03      0.1503768241E-02

    ------------------------------------------------
       NWT REQUIRED            4 OUTER ITERATIONS 
       AND A TOTAL OF          7 INNER ITERATIONS.
    ------------------------------------------------

 NO OUTPUT CONTROL FOR STRESS PERIOD   19   TIME STEP   24
 
 SOLVING FOR HEAD 
                                                   Max.-Head-Change                         Max.-Flux-Residual
  Residual-Control   Outer-Iter.   Inner-Iter.     Column Row Layer    Maximum-Head-Change  Column Row Layer    Maximum-Flux-Residual          L2-NORM 
          0                 1           2             4    7     1      -0.4597313307E-01       4    7    1        -0.2413885743E+01      0.5201484035E+01
          0                 2           2             4    7     1       0.4471893943E-02       4    7    1         0.2413860044E+00      0.5201452651E+00
          0                 3           2             4    7     1      -0.3045197734E-03       4    7    1        -0.1689705192E-01      0.3641014951E-01
          0                 4           1             4    7     1       0.1211712514E-04       4    7    1         0.6910902750E-03      0.1489174201E-02

    ------------------------------------------------
       NWT REQUIRED            4 OUTER ITERATIONS 
       AND A TOTAL OF          7 INNER ITERATIONS.
    ------------------------------------------------

 NO OUTPUT CONTROL FOR STRESS PERIOD   19   TIME STEP   25
 
 SOLVING FOR HEAD 
                                                   Max.-Head-Change                         Max.-Flux-Residual
  Residual-Control   Outer-Iter.   Inner-Iter.     Column Row Layer    Maximum-Head-Change  Column Row Layer    Maximum-Flux-Residual          L2-NORM 
          0                 1           2             4    7     1      -0.4549508045E-01       4    7    1        -0.2388873762E+01      0.5151989032E+01
          0                 2           2             4    7     1       0.4425392926E-02       4    7    1         0.2388848374E+00      0.5151958785E+00
          0                 3           2             4    7     1      -0.3013532220E-03       4    7    1        -0.1672196986E-01      0.3606369825E-01
          0                 4           1             4    7     1       0.1199112489E-04       4    7    1         0.6839294037E-03      0.1475000449E-02

    ------------------------------------------------
       NWT REQUIRED            4 OUTER ITERATIONS 
       AND A TOTAL OF          7 INNER ITERATIONS.
    ------------------------------------------------

 NO OUTPUT CONTROL FOR STRESS PERIOD   19   TIME STEP   26
 
 SOLVING FOR HEAD 
                                                   Max.-Head-Change                         Max.-Flux-Residual
  Residual-Control   Outer-Iter.   Inner-Iter.     Column Row Layer    Maximum-Head-Change  Column Row Layer    Maximum-Flux-Residual          L2-NORM 
          0                 1           2             4    7     1      -0.4502043974E-01       4    7    1        -0.2364023265E+01      0.5103886367E+01
          0                 2           2             4    7     1       0.4379223819E-02       4    7    1         0.2363998205E+00      0.5103857231E+00
          0                 3           2             4    7     1      -0.2982092720E-03       4    7    1        -0.1654801829E-01      0.3572707002E-01
          0                 4           1             4    7     1       0.1186602436E-04       4    7    1         0.6768147691E-03      0.1461368790E-02

    ------------------------------------------------
       NWT REQUIRED            4 OUTER ITERATIONS 
       AND A TOTAL OF          7 INNER ITERATIONS.
    ------------------------------------------------

 NO OUTPUT CONTROL FOR STRESS PERIOD   19   TIME STEP   27
 
 SOLVING FOR HEAD 
                                                   Max.-Head-Change                         Max.-Flux-Residual
  Residual-Control   Outer-Iter.   Inner-Iter.     Column Row Layer    Maximum-Head-Change  Column Row Layer    Maximum-Flux-Residual          L2-NORM 
          0                 1           2             4    7     1      -0.4454974886E-01       4    7    1        -0.2339364375E+01      0.5057124158E+01
          0                 2           2             4    7     1       0.4333438941E-02       4    7    1         0.2339339656E+00      0.5057095963E+00
          0                 3           2             4    7     1      -0.2950914866E-03       4    7    1        -0.1637540806E-01      0.3539966715E-01
          0                 4           1             4    7     1       0.1174196470E-04       4    7    1         0.6697549977E-03      0.1447845991E-02

    ------------------------------------------------
       NWT REQUIRED            4 OUTER ITERATIONS 
       AND A TOTAL OF          7 INNER ITERATIONS.
    ------------------------------------------------

 NO OUTPUT CONTROL FOR STRESS PERIOD   19   TIME STEP   28
 
 SOLVING FOR HEAD 
                                                   Max.-Head-Change                         Max.-Flux-Residual
  Residual-Control   Outer-Iter.   Inner-Iter.     Column Row Layer    Maximum-Head-Change  Column Row Layer    Maximum-Flux-Residual          L2-NORM 
          0                 1           2             4    7     1      -0.4408298195E-01       4    7    1        -0.2314895846E+01      0.5013315420E+01
          0                 2           2             4    7     1       0.4288035776E-02       4    7    1         0.2314871480E+00      0.5013244977E+00
          0                 3           2             4    7     1      -0.2919996942E-03       4    7    1        -0.1620413041E-01      0.3509231383E-01
          0                 4           1             4    7     1       0.1161893969E-04       4    7    1         0.6627497487E-03      0.1435239225E-02

    ------------------------------------------------
       NWT REQUIRED            4 OUTER ITERATIONS 
       AND A TOTAL OF          7 INNER ITERATIONS.
    ------------------------------------------------

 NO OUTPUT CONTROL FOR STRESS PERIOD   19   TIME STEP   29
 
 SOLVING FOR HEAD 
                                                   Max.-Head-Change                         Max.-Flux-Residual
  Residual-Control   Outer-Iter.   Inner-Iter.     Column Row Layer    Maximum-Head-Change  Column Row Layer    Maximum-Flux-Residual          L2-NORM 
          0                 1           2             4    7     1      -0.4362063870E-01       4    7    1        -0.2290645472E+01      0.4972316088E+01
          0                 2           2             4    7     1       0.4243062928E-02       4    7    1         0.2290621469E+00      0.4972144376E+00
          0                 3           2             4    7     1      -0.2889372048E-03       4    7    1        -0.1603437992E-01      0.3480370828E-01
          0                 4           1             4    7     1       0.1149708023E-04       4    7    1         0.6558069467E-03      0.1423376517E-02

    ------------------------------------------------
       NWT REQUIRED            4 OUTER ITERATIONS 
       AND A TOTAL OF          7 INNER ITERATIONS.
    ------------------------------------------------

 NO OUTPUT CONTROL FOR STRESS PERIOD   19   TIME STEP   30



 STREAM LISTING     PERIOD     19   STEP       30

 LAYER ROW COL. STREAM  RCH.  FLOW INTO     FLOW TO   FLOW OUT OF   OVRLND.     DIRECT     STREAM       STREAM     STREAM     STREAM   STREAMBED  STREAMBED
                SEG.NO.  NO.  STRM. RCH.    AQUIFER    STRM. RCH.    RUNOFF     PRECIP       ET          HEAD       DEPTH      WIDTH   CONDCTNC.   GRADIENT

   1    1    1     1     1    5.4001E+01  3.5066E-01   5.3650E+01  0.000E+00  0.000E+00  0.000E+00  1.09450E+03  1.450E+00  1.751E+01  7.879E-02  1.483E+00
   1    2    2     1     2    5.3650E+01  5.4294E-01   5.3107E+01  0.000E+00  0.000E+00  0.000E+00  1.08950E+03  1.445E+00  1.745E+01  1.222E-01  1.482E+00
   1    3    3     1     3    5.3107E+01  4.6294E-01   5.2644E+01  0.000E+00  0.000E+00  0.000E+00  1.08386E+03  1.438E+00  1.739E+01  1.043E-01  1.479E+00
   1    3    4     1     4    5.2644E+01  4.2621E-01   5.2218E+01  0.000E+00  0.000E+00  0.000E+00  1.07884E+03  1.432E+00  1.733E+01  9.616E-02  1.477E+00
   1    4    5     2     1    5.0218E+01  3.7682E-01   4.9841E+01  0.000E+00  0.000E+00  0.000E+00  1.07376E+03  1.831E+00  1.200E+01  7.800E-02  1.610E+00
   1    5    6     2     2    4.9841E+01  2.8942E-01   4.9552E+01  0.000E+00  0.000E+00  0.000E+00  1.06833E+03  1.824E+00  1.200E+01  6.000E-02  1.608E+00
   1    6    6     2     3    4.9552E+01  2.8904E-01   4.9263E+01  0.000E+00  0.000E+00  0.000E+00  1.06361E+03  1.817E+00  1.200E+01  6.000E-02  1.606E+00
   1    7    6     2     4    4.9263E+01  2.8865E-01   4.8974E+01  0.000E+00  0.000E+00  0.000E+00  1.05889E+03  1.811E+00  1.200E+01  6.000E-02  1.604E+00
   1    8    6     2     5    4.8974E+01  2.8827E-01   4.8686E+01  0.000E+00  0.000E+00  0.000E+00  1.05416E+03  1.804E+00  1.200E+01  6.000E-02  1.601E+00
   1    3    5     3     1    2.0000E+00  2.8252E-01   1.7175E+00  0.000E+00  0.000E+00  0.000E+00  1.07555E+03  1.909E+00  9.636E+00  7.227E-02  1.955E+00
   1    3    6     3     2    1.7175E+00  2.4905E-01   1.4684E+00  0.000E+00  0.000E+00  0.000E+00  1.07264E+03  1.727E+00  8.909E+00  6.682E-02  1.864E+00
   1    3    7     3     3    1.4684E+00  1.9718E-01   1.2712E+00  0.000E+00  0.000E+00  0.000E+00  1.06987E+03  1.555E+00  8.218E+00  5.547E-02  1.777E+00
   1    4    8     3     4    1.2712E+00  2.2567E-01   1.0456E+00  0.000E+00  0.000E+00  0.000E+00  1.06682E+03  1.364E+00  7.455E+00  6.709E-02  1.682E+00
   1    5    8     3     5    1.0456E+00  1.5790E-01   8.8768E-01  0.000E+00  0.000E+00  0.000E+00  1.06362E+03  1.164E+00  6.655E+00  4.991E-02  1.582E+00
   1    6    8     3     6    8.8768E-01  5.5980E-02   8.3170E-01  0.000E+00  0.000E+00  0.000E+00  1.06158E+03  1.036E+00  6.145E+00  1.844E-02  1.518E+00
   1    5   10     4     1    1.0000E+01  9.0919E-02   9.9091E+00  0.000E+00  0.000E+00  0.000E+00  1.07836E+03  6.368E-01  1.000E+01  2.500E-02  1.212E+00
   1    5    9     4     2    9.9091E+00  1.8158E-01   9.7275E+00  0.000E+00  0.000E+00  0.000E+00  1.07154E+03  6.315E-01  1.000E+01  5.000E-02  1.211E+00
   1    6    8     4     3    9.7275E+00  1.2689E-01   9.6006E+00  0.000E+00  0.000E+00  0.000E+00  1.06381E+03  6.256E-01  1.000E+01  3.500E-02  1.209E+00
   1    6    8     5     1    1.0432E+01  2.2686E-01   1.0205E+01  0.000E+00  0.000E+00  0.000E+00  1.05868E+03  6.790E-01  1.542E+01  6.166E-02  1.226E+00
   1    7    7     5     2    1.0205E+01  2.7894E-01   9.9265E+00  0.000E+00  0.000E+00  0.000E+00  1.05417E+03  6.732E-01  1.519E+01  7.594E-02  1.224E+00
   1    8    7     5     3    9.9265E+00  1.9221E-01   9.7343E+00  0.000E+00  0.000E+00  0.000E+00  1.04992E+03  6.676E-01  1.497E+01  5.241E-02  1.223E+00
   1    8    6     5     4    9.7343E+00  1.3577E-01   9.5985E+00  0.000E+00  0.000E+00  0.000E+00  1.04691E+03  6.637E-01  1.482E+01  3.706E-02  1.221E+00
   1    9    6     6     1    5.8284E+01  3.0156E-01   5.7983E+01  0.000E+00  0.000E+00  0.000E+00  1.04475E+03  2.026E+00  1.200E+01  6.000E-02  1.675E+00
   1   10    7     6     2    5.7983E+01  3.0118E-01   5.7682E+01  0.000E+00  0.000E+00  0.000E+00  1.04020E+03  2.020E+00  1.200E+01  6.000E-02  1.673E+00
   1   11    7     6     3    5.7682E+01  3.0080E-01   5.7381E+01  0.000E+00  0.000E+00  0.000E+00  1.03565E+03  2.013E+00  1.200E+01  6.000E-02  1.671E+00
   1   12    7     6     4    5.7381E+01  3.0042E-01   5.7080E+01  0.000E+00  0.000E+00  0.000E+00  1.03110E+03  2.007E+00  1.200E+01  6.000E-02  1.669E+00
   1   13    7     6     5    5.7080E+01  1.9551E-02   5.7061E+01  0.000E+00  0.000E+00  0.000E+00  1.02791E+03  2.004E+00  1.200E+01  2.400E-02  2.715E-01
   1   14    9     7     1    1.5000E+02  1.3317E+00   1.4867E+02  0.000E+00  0.000E+00  0.000E+00  1.03987E+03  2.288E+00  5.529E+01  5.593E-01  7.936E-01
   1   13    8     7     2    1.4867E+02  1.8257E+00   1.4684E+02  0.000E+00  0.000E+00  0.000E+00  1.03478E+03  2.279E+00  5.526E+01  6.148E-01  9.899E-01
   1   13    7     7     3    1.4684E+02  1.4474E+00   1.4540E+02  0.000E+00  0.000E+00  0.000E+00  1.02969E+03  2.271E+00  5.522E+01  5.585E-01  8.639E-01
   1   13    6     8     1    2.0246E+02  1.0284E+00   2.0143E+02  0.000E+00  0.000E+00  0.000E+00  1.02502E+03  3.149E+00  4.566E+01  4.653E-01  7.367E-01
   1   13    5     8     2    2.0143E+02  2.3393E-01   2.0119E+02  0.000E+00  0.000E+00  0.000E+00  1.01877E+03  3.145E+00  4.561E+01  4.648E-01  1.678E-01
   1   13    4     8     3    2.0119E+02 -2.2685E+00   2.0346E+02  0.000E+00  0.000E+00  0.000E+00  1.01253E+03  3.151E+00  4.569E+01  4.656E+00 -1.624E-01
   1   13    3     8     4    2.0346E+02 -3.4634E+00   2.0693E+02  0.000E+00  0.000E+00  0.000E+00  1.00629E+03  3.168E+00  4.594E+01  4.681E+00 -2.466E-01
   1   13    2     8     5    2.0693E+02 -2.6108E+00   2.0954E+02  0.000E+00  0.000E+00  0.000E+00  1.00006E+03  3.186E+00  4.619E+01  4.707E+00 -1.849E-01
   1   13    1     8     6    2.0954E+02 -2.0318E+00   2.1157E+02  0.000E+00  0.000E+00  0.000E+00  9.95074E+02  3.199E+00  4.638E+01  2.836E+00 -2.388E-01





UNSATURATED ZONE PACKAGE VOLUMETRIC BUDGET FOR  TIME STEP    30 STRESS PERIOD   19
  ------------------------------------------------------------------------------



     CUMULATIVE VOLUMES      L**3       RATES FOR THIS TIME STEP      L**3/T
     ------------------                 ------------------------

           IN:                                      IN:
           ---                                      ---
        INFILTRATION =   693432083.4224          INFILTRATION =          26.5613

          OUT:                                     OUT:
          ----                                     ----
              UZF ET =   636716527.4327                UZF ET =          26.6075
        UZF RECHARGE =      797071.6500          UZF RECHARGE =       0.0000E+00

            IN - OUT =    55918484.3396              IN - OUT =      -4.6247E-02

          STORAGE:                                 STORAGE:
          --------                                 --------
      STORAGE CHANGE =    55920137.7318        STORAGE CHANGE =      -4.6247E-02

 PERCENT DISCREPANCY IS DIFFERENCE BETWEEN IN-OUT MINUS CHANGE IN STORAGE
 DIVIDED BY THE AVERAGE OF IN AND OUT TIMES 100

 PERCENT DISCREPANCY =          -0.00     PERCENT DISCREPANCY =           0.00






1
  VOLUMETRIC BUDGET FOR ENTIRE MODEL AT END OF TIME STEP   30, STRESS PERIOD  19
  ------------------------------------------------------------------------------

     CUMULATIVE VOLUMES      L**3       RATES FOR THIS TIME STEP      L**3/T
     ------------------                 ------------------------

           IN:                                      IN:
           ---                                      ---
               AG WELLS  =   484707776.0000                 AG WELLS  =          22.1538
      DIVERSION SEGMENTS =           0.0000        DIVERSION SEGMENTS =           0.0000
           GW IRRIGATION =           0.0000             GW IRRIGATION =           0.0000
           SW IRRIGATION =           0.0000             SW IRRIGATION =           0.0000
        SYSTEM LOSSES GW =           0.0000          SYSTEM LOSSES GW =           0.0000
        SYSTEM LOSSES SW =           0.0000          SYSTEM LOSSES SW =           0.0000

                TOTAL IN =   484707776.0000                  TOTAL IN =          22.1538

          OUT:                                     OUT:
          ----                                     ----
               AG WELLS  =           0.0000                 AG WELLS  =           0.0000
      DIVERSION SEGMENTS =           0.0000        DIVERSION SEGMENTS =           0.0000
           GW IRRIGATION =   484707776.0000             GW IRRIGATION =          22.1538
           SW IRRIGATION =           0.0000             SW IRRIGATION =           0.0000
        SYSTEM LOSSES GW =           0.0000          SYSTEM LOSSES GW =           0.0000
        SYSTEM LOSSES SW =           0.0000          SYSTEM LOSSES SW =           0.0000

               TOTAL OUT =   484707776.0000                 TOTAL OUT =          22.1538

                IN - OUT =           0.0000                  IN - OUT =           0.0000

     PERCENT DISCREPANCY =           0.00         PERCENT DISCREPANCY =           0.00



1
  VOLUMETRIC BUDGET FOR ENTIRE MODEL AT END OF TIME STEP   30, STRESS PERIOD  19
  ------------------------------------------------------------------------------

     CUMULATIVE VOLUMES      L**3       RATES FOR THIS TIME STEP      L**3/T
     ------------------                 ------------------------

           IN:                                      IN:
           ---                                      ---
             STORAGE     =   648678016.0000               STORAGE     =          20.4434
       CONSTANT HEAD     =           0.0000         CONSTANT HEAD     =           0.0000
     HEAD DEP BOUNDS     =    13536053.0000       HEAD DEP BOUNDS     =           0.2855
      STREAM LEAKAGE     =   595789824.0000        STREAM LEAKAGE     =          12.8070
        UZF RECHARGE     =      797071.5625          UZF RECHARGE     =           0.0000
               GW ET     =           0.0000                 GW ET     =           0.0000
     SURFACE LEAKAGE     =           0.0000       SURFACE LEAKAGE     =           0.0000
           AG WELLS      =           0.0000             AG WELLS      =           0.0000

                TOTAL IN =  1258801024.0000                  TOTAL IN =          33.5359

          OUT:                                     OUT:
          ----                                     ----
             STORAGE     =   254071280.0000               STORAGE     =           0.3683
       CONSTANT HEAD     =           0.0000         CONSTANT HEAD     =           0.0000
     HEAD DEP BOUNDS     =    13979211.0000       HEAD DEP BOUNDS     =           0.2960
      STREAM LEAKAGE     =   489807744.0000        STREAM LEAKAGE     =          10.3745
        UZF RECHARGE     =           0.0000          UZF RECHARGE     =           0.0000
               GW ET     =    16236801.0000                 GW ET     =           0.3433
     SURFACE LEAKAGE     =           0.0000       SURFACE LEAKAGE     =           0.0000
           AG WELLS      =   484707776.0000             AG WELLS      =          22.1538

               TOTAL OUT =  1258802816.0000                 TOTAL OUT =          33.5360

                IN - OUT =       -1792.0000                  IN - OUT =      -6.8665E-05

     PERCENT DISCREPANCY =          -0.00         PERCENT DISCREPANCY =          -0.00






         TIME SUMMARY AT END OF TIME STEP   30 IN STRESS PERIOD   19
                    SECONDS     MINUTES      HOURS       DAYS        YEARS
                    -----------------------------------------------------------
   TIME STEP LENGTH  87667.      1461.1      24.352      1.0147     2.77799E-03
 STRESS PERIOD TIME 2.63000E+06  43833.      730.56      30.440     8.33397E-02
         TOTAL TIME 4.74265E+07 7.90442E+05  13174.      548.92      1.5029    
1
1
                            STRESS PERIOD NO.   20, LENGTH =   2630000.    
                            -----------------------------------------------

                              NUMBER OF TIME STEPS =    30

                               MULTIPLIER FOR DELT =     1.000

                            INITIAL TIME STEP SIZE =   87666.66    

 REUSING NON-PARAMETER GHB CELLS FROM LAST STRESS PERIOD

      2 GHB CELLS

 REUSING STREAM SEGMENT DATA FROM LAST STRESS PERIOD



            AREAL INFILTRATION RATE
 READING ON UNIT   19 WITH FORMAT: (10F4.0)            

            1           2           3           4           5           6           7           8           9          10
 ........................................................................................................................
   1   1.2000E-09   0.000       0.000       0.000       0.000       0.000       0.000       0.000       0.000       0.000    
   2   2.1000E-09  2.0000E-09  8.0000E-10  8.5000E-09   0.000       0.000       0.000       0.000       0.000       0.000    
   3   5.0000E-10  1.1000E-09  8.8000E-09  5.5000E-09   0.000       0.000       0.000       0.000       0.000       0.000    
   4   8.5000E-09  1.1000E-09  1.1000E-09  1.1000E-09  2.0000E-09   0.000       0.000       0.000       0.000       0.000    
   5   8.5000E-09  1.1000E-09  1.1000E-09  1.1000E-09  1.1000E-09   0.000       0.000       0.000       0.000       0.000    
   6   8.5000E-09  5.2000E-09  2.1000E-09  1.1000E-09  1.5000E-09   0.000       0.000       0.000       0.000       0.000    
   7   8.5000E-09  5.2000E-09  2.1000E-09  1.2000E-09  2.0000E-09   0.000       0.000       0.000       0.000       0.000    
   8   5.0000E-10  5.2000E-09  2.1000E-09  1.2000E-09  5.0000E-09   0.000       0.000       0.000       0.000       0.000    
   9   5.0000E-10  5.2000E-09  2.1000E-09  1.2000E-09  5.0000E-09   0.000       0.000       0.000       0.000       0.000    
  10   5.0000E-10  5.2000E-09  2.1000E-09  1.2000E-09  5.8000E-09   0.000       0.000       0.000       0.000       0.000    
  11   1.0000E-10  1.1000E-09  1.1000E-09  1.2000E-09  5.0000E-09   0.000       0.000       0.000       0.000       0.000    
  12   1.1000E-09  1.1000E-09  1.1000E-09  1.1000E-09  2.0000E-09   0.000       0.000       0.000       0.000       0.000    
  13   1.1000E-09  2.2000E-09  2.2000E-09  2.1000E-09  1.0000E-09   0.000       0.000       0.000       0.000       0.000    
  14   2.0000E-10  5.5000E-09  5.5000E-09  5.2000E-09  1.0000E-09   0.000       0.000       0.000       0.000       0.000    
  15    0.000      8.8000E-09  8.8000E-09   0.000       0.000       0.000       0.000       0.000       0.000       0.000    

                  ET RATE =  4.000000E-07

 USING ET EXTINCTION DEPTH FROM PREVIOUS STRESS PERIOD. CURRENT PERIOD IS:      20

 USING EXTINCTION WATER CONTENT FROM PREVIOUS STRESS PERIOD. CURRENT PERIOD IS:      20

 USING AIR ENTRY PRESSURE FROM PREVIOUS STRESS PERIOD. CURRENT PERIOD IS:      20

 USING ROOT PRESSURE HEAD FROM PREVIOUS STRESS PERIOD. CURRENT PERIOD IS:      20

 USING ROOT ACTIVITY FROM PREVIOUS STRESS PERIOD. CURRENT PERIOD IS:      20

 PROCESSING AG STRESS PERIOD DATA

 READING AG STRESS PERIOD DATA

 READING IRRIGATION WELL

 END PROCESSING AG STRESS PERIOD DATA OPTIONS
 
 SOLVING FOR HEAD 
                                                   Max.-Head-Change                         Max.-Flux-Residual
  Residual-Control   Outer-Iter.   Inner-Iter.     Column Row Layer    Maximum-Head-Change  Column Row Layer    Maximum-Flux-Residual          L2-NORM 
          0                 1           2             4    7     1      -0.1628736105E+00       4    7    1        -0.8516618086E+01      0.1996426932E+02
          0                 2           2             4    7     1       0.1584291036E-01       4    7    1         0.8516451629E+00      0.1996376013E+01
          0                 3           2             4    7     1      -0.1078845913E-02       4    7    1        -0.5961534466E-01      0.1397444901E+00
          0                 4           1             4    7     1       0.4292827709E-04       4    7    1         0.2438270273E-02      0.5715465032E-02

    ------------------------------------------------
       NWT REQUIRED            4 OUTER ITERATIONS 
       AND A TOTAL OF          7 INNER ITERATIONS.
    ------------------------------------------------

 OUTPUT CONTROL FOR STRESS PERIOD   20   TIME STEP    1
    PRINT BUDGET
    SAVE BUDGET
    SAVE BUDGET
 UBDSV1 SAVING "         STORAGE" ON UNIT 102 AT TIME STEP  1, STRESS PERIOD  20
 UBDSV2 SAVING "   CONSTANT HEAD" ON UNIT 102 AT TIME STEP  1, STRESS PERIOD  20
 UBDSV1 SAVING "FLOW RIGHT FACE " ON UNIT 102 AT TIME STEP  1, STRESS PERIOD  20
 UBDSV1 SAVING "FLOW FRONT FACE " ON UNIT 102 AT TIME STEP  1, STRESS PERIOD  20

  HEAD DEP BOUNDS   PERIOD   20   STEP     1
 BOUNDARY      1   LAYER   1   ROW    13   COL     1   RATE   -0.295989    
 BOUNDARY      2   LAYER   1   ROW    14   COL     9   RATE    0.285478    



 STREAM LISTING     PERIOD     20   STEP        1

 LAYER ROW COL. STREAM  RCH.  FLOW INTO     FLOW TO   FLOW OUT OF   OVRLND.     DIRECT     STREAM       STREAM     STREAM     STREAM   STREAMBED  STREAMBED
                SEG.NO.  NO.  STRM. RCH.    AQUIFER    STRM. RCH.    RUNOFF     PRECIP       ET          HEAD       DEPTH      WIDTH   CONDCTNC.   GRADIENT

   1    1    1     1     1    5.4001E+01  3.5066E-01   5.3650E+01  0.000E+00  0.000E+00  0.000E+00  1.09450E+03  1.450E+00  1.751E+01  7.879E-02  1.483E+00
   1    2    2     1     2    5.3650E+01  5.4294E-01   5.3107E+01  0.000E+00  0.000E+00  0.000E+00  1.08950E+03  1.445E+00  1.745E+01  1.222E-01  1.482E+00
   1    3    3     1     3    5.3107E+01  4.6294E-01   5.2644E+01  0.000E+00  0.000E+00  0.000E+00  1.08386E+03  1.438E+00  1.739E+01  1.043E-01  1.479E+00
   1    3    4     1     4    5.2644E+01  4.2621E-01   5.2218E+01  0.000E+00  0.000E+00  0.000E+00  1.07884E+03  1.432E+00  1.733E+01  9.616E-02  1.477E+00
   1    4    5     2     1    5.0218E+01  3.7682E-01   4.9841E+01  0.000E+00  0.000E+00  0.000E+00  1.07376E+03  1.831E+00  1.200E+01  7.800E-02  1.610E+00
   1    5    6     2     2    4.9841E+01  2.8942E-01   4.9552E+01  0.000E+00  0.000E+00  0.000E+00  1.06833E+03  1.824E+00  1.200E+01  6.000E-02  1.608E+00
   1    6    6     2     3    4.9552E+01  2.8904E-01   4.9263E+01  0.000E+00  0.000E+00  0.000E+00  1.06361E+03  1.817E+00  1.200E+01  6.000E-02  1.606E+00
   1    7    6     2     4    4.9263E+01  2.8865E-01   4.8974E+01  0.000E+00  0.000E+00  0.000E+00  1.05889E+03  1.811E+00  1.200E+01  6.000E-02  1.604E+00
   1    8    6     2     5    4.8974E+01  2.8827E-01   4.8686E+01  0.000E+00  0.000E+00  0.000E+00  1.05416E+03  1.804E+00  1.200E+01  6.000E-02  1.601E+00
   1    3    5     3     1    2.0000E+00  2.8252E-01   1.7175E+00  0.000E+00  0.000E+00  0.000E+00  1.07555E+03  1.909E+00  9.636E+00  7.227E-02  1.955E+00
   1    3    6     3     2    1.7175E+00  2.4905E-01   1.4684E+00  0.000E+00  0.000E+00  0.000E+00  1.07264E+03  1.727E+00  8.909E+00  6.682E-02  1.864E+00
   1    3    7     3     3    1.4684E+00  1.9718E-01   1.2712E+00  0.000E+00  0.000E+00  0.000E+00  1.06987E+03  1.555E+00  8.218E+00  5.547E-02  1.777E+00
   1    4    8     3     4    1.2712E+00  2.2567E-01   1.0456E+00  0.000E+00  0.000E+00  0.000E+00  1.06682E+03  1.364E+00  7.455E+00  6.709E-02  1.682E+00
   1    5    8     3     5    1.0456E+00  1.5790E-01   8.8768E-01  0.000E+00  0.000E+00  0.000E+00  1.06362E+03  1.164E+00  6.655E+00  4.991E-02  1.582E+00
   1    6    8     3     6    8.8768E-01  5.5980E-02   8.3170E-01  0.000E+00  0.000E+00  0.000E+00  1.06158E+03  1.036E+00  6.145E+00  1.844E-02  1.518E+00
   1    5   10     4     1    1.0000E+01  9.0919E-02   9.9091E+00  0.000E+00  0.000E+00  0.000E+00  1.07836E+03  6.368E-01  1.000E+01  2.500E-02  1.212E+00
   1    5    9     4     2    9.9091E+00  1.8158E-01   9.7275E+00  0.000E+00  0.000E+00  0.000E+00  1.07154E+03  6.315E-01  1.000E+01  5.000E-02  1.211E+00
   1    6    8     4     3    9.7275E+00  1.2689E-01   9.6006E+00  0.000E+00  0.000E+00  0.000E+00  1.06381E+03  6.256E-01  1.000E+01  3.500E-02  1.209E+00
   1    6    8     5     1    1.0432E+01  2.2686E-01   1.0205E+01  0.000E+00  0.000E+00  0.000E+00  1.05868E+03  6.790E-01  1.542E+01  6.166E-02  1.226E+00
   1    7    7     5     2    1.0205E+01  2.7894E-01   9.9265E+00  0.000E+00  0.000E+00  0.000E+00  1.05417E+03  6.732E-01  1.519E+01  7.594E-02  1.224E+00
   1    8    7     5     3    9.9265E+00  1.9221E-01   9.7343E+00  0.000E+00  0.000E+00  0.000E+00  1.04992E+03  6.676E-01  1.497E+01  5.241E-02  1.223E+00
   1    8    6     5     4    9.7343E+00  1.3577E-01   9.5985E+00  0.000E+00  0.000E+00  0.000E+00  1.04691E+03  6.637E-01  1.482E+01  3.706E-02  1.221E+00
   1    9    6     6     1    5.8284E+01  3.0156E-01   5.7983E+01  0.000E+00  0.000E+00  0.000E+00  1.04475E+03  2.026E+00  1.200E+01  6.000E-02  1.675E+00
   1   10    7     6     2    5.7983E+01  3.0118E-01   5.7682E+01  0.000E+00  0.000E+00  0.000E+00  1.04020E+03  2.020E+00  1.200E+01  6.000E-02  1.673E+00
   1   11    7     6     3    5.7682E+01  3.0080E-01   5.7381E+01  0.000E+00  0.000E+00  0.000E+00  1.03565E+03  2.013E+00  1.200E+01  6.000E-02  1.671E+00
   1   12    7     6     4    5.7381E+01  3.0042E-01   5.7080E+01  0.000E+00  0.000E+00  0.000E+00  1.03110E+03  2.007E+00  1.200E+01  6.000E-02  1.669E+00
   1   13    7     6     5    5.7080E+01  1.9560E-02   5.7061E+01  0.000E+00  0.000E+00  0.000E+00  1.02791E+03  2.004E+00  1.200E+01  2.400E-02  2.717E-01
   1   14    9     7     1    1.5000E+02  1.3317E+00   1.4867E+02  0.000E+00  0.000E+00  0.000E+00  1.03987E+03  2.288E+00  5.529E+01  5.593E-01  7.937E-01
   1   13    8     7     2    1.4867E+02  1.8258E+00   1.4684E+02  0.000E+00  0.000E+00  0.000E+00  1.03478E+03  2.279E+00  5.526E+01  6.148E-01  9.899E-01
   1   13    7     7     3    1.4684E+02  1.4477E+00   1.4539E+02  0.000E+00  0.000E+00  0.000E+00  1.02969E+03  2.271E+00  5.522E+01  5.585E-01  8.641E-01
   1   13    6     8     1    2.0246E+02  1.0288E+00   2.0143E+02  0.000E+00  0.000E+00  0.000E+00  1.02502E+03  3.149E+00  4.566E+01  4.653E-01  7.370E-01
   1   13    5     8     2    2.0143E+02  2.3428E-01   2.0119E+02  0.000E+00  0.000E+00  0.000E+00  1.01877E+03  3.145E+00  4.561E+01  4.648E-01  1.680E-01
   1   13    4     8     3    2.0119E+02 -2.2552E+00   2.0345E+02  0.000E+00  0.000E+00  0.000E+00  1.01253E+03  3.151E+00  4.569E+01  4.656E+00 -1.614E-01
   1   13    3     8     4    2.0345E+02 -3.4373E+00   2.0689E+02  0.000E+00  0.000E+00  0.000E+00  1.00629E+03  3.168E+00  4.593E+01  4.681E+00 -2.448E-01
   1   13    2     8     5    2.0689E+02 -2.6050E+00   2.0949E+02  0.000E+00  0.000E+00  0.000E+00  1.00006E+03  3.185E+00  4.619E+01  4.707E+00 -1.845E-01
   1   13    1     8     6    2.0949E+02 -2.0293E+00   2.1152E+02  0.000E+00  0.000E+00  0.000E+00  9.95074E+02  3.199E+00  4.638E+01  2.836E+00 -2.385E-01



 UBDSV3 SAVING "           GW ET" ON UNIT  61 AT TIME STEP  1, STRESS PERIOD  20
 UBDSV3 SAVING "    UZF RECHARGE" ON UNIT  61 AT TIME STEP  1, STRESS PERIOD  20
 UBDSV3 SAVING " SURFACE LEAKAGE" ON UNIT  61 AT TIME STEP  1, STRESS PERIOD  20
 UBDSV3 SAVING "       HORT+DUNN" ON UNIT  61 AT TIME STEP  1, STRESS PERIOD  20
 UBDSV3 SAVING "  STORAGE CHANGE" ON UNIT  61 AT TIME STEP  1, STRESS PERIOD  20


UNSATURATED ZONE PACKAGE VOLUMETRIC BUDGET FOR  TIME STEP     1 STRESS PERIOD   20
  ------------------------------------------------------------------------------



     CUMULATIVE VOLUMES      L**3       RATES FOR THIS TIME STEP      L**3/T
     ------------------                 ------------------------

           IN:                                      IN:
           ---                                      ---
        INFILTRATION =   699048238.6167          INFILTRATION =          64.0626

          OUT:                                     OUT:
          ----                                     ----
              UZF ET =   642336618.0021                UZF ET =          64.1075
        UZF RECHARGE =      797071.6500          UZF RECHARGE =       0.0000E+00

            IN - OUT =    55914548.9646              IN - OUT =      -4.4891E-02

          STORAGE:                                 STORAGE:
          --------                                 --------
      STORAGE CHANGE =    55916202.2541        STORAGE CHANGE =      -4.4891E-02

 PERCENT DISCREPANCY IS DIFFERENCE BETWEEN IN-OUT MINUS CHANGE IN STORAGE
 DIVIDED BY THE AVERAGE OF IN AND OUT TIMES 100

 PERCENT DISCREPANCY =          -0.00     PERCENT DISCREPANCY =           0.00






 

            AG WELLS      PERIOD   20   STEP   1
 AG WELL      1   LAYER   1   ROW     6   COL     4   RATE    -9.96624    
 AG WELL      2   LAYER   1   ROW     6   COL     5   RATE    -9.95363    
 AG WELL      3   LAYER   1   ROW     7   COL     4   RATE    -9.96321    
 AG WELL      4   LAYER   1   ROW     7   COL     5   RATE    -9.94088    
 AG WELL      5   LAYER   1   ROW     8   COL     4   RATE    -9.96321    
 AG WELL      6   LAYER   1   ROW     8   COL     5   RATE    -9.86795    
 
 

        GW IRRIGATION     PERIOD   20   STEP   1
 AG WELL      1   ROW     6   COL     4   RATE     9.96624    
 AG WELL      2   ROW     6   COL     5   RATE     9.95363    
 AG WELL      3   ROW     7   COL     4   RATE     9.96321    
 AG WELL      4   ROW     7   COL     5   RATE     9.94088    
 AG WELL      5   ROW     8   COL     4   RATE     9.96321    
 AG WELL      6   ROW     8   COL     5   RATE     9.86795    
 
1
  VOLUMETRIC BUDGET FOR ENTIRE MODEL AT END OF TIME STEP    1, STRESS PERIOD  20
  ------------------------------------------------------------------------------

     CUMULATIVE VOLUMES      L**3       RATES FOR THIS TIME STEP      L**3/T
     ------------------                 ------------------------

           IN:                                      IN:
           ---                                      ---
               AG WELLS  =   489937536.0000                 AG WELLS  =          59.6551
      DIVERSION SEGMENTS =           0.0000        DIVERSION SEGMENTS =           0.0000
           GW IRRIGATION =           0.0000             GW IRRIGATION =           0.0000
           SW IRRIGATION =           0.0000             SW IRRIGATION =           0.0000
        SYSTEM LOSSES GW =           0.0000          SYSTEM LOSSES GW =           0.0000
        SYSTEM LOSSES SW =           0.0000          SYSTEM LOSSES SW =           0.0000

                TOTAL IN =   489937536.0000                  TOTAL IN =          59.6551

          OUT:                                     OUT:
          ----                                     ----
               AG WELLS  =           0.0000                 AG WELLS  =           0.0000
      DIVERSION SEGMENTS =           0.0000        DIVERSION SEGMENTS =           0.0000
           GW IRRIGATION =   489937536.0000             GW IRRIGATION =          59.6551
           SW IRRIGATION =           0.0000             SW IRRIGATION =           0.0000
        SYSTEM LOSSES GW =           0.0000          SYSTEM LOSSES GW =           0.0000
        SYSTEM LOSSES SW =           0.0000          SYSTEM LOSSES SW =           0.0000

               TOTAL OUT =   489937536.0000                 TOTAL OUT =          59.6551

                IN - OUT =           0.0000                  IN - OUT =           0.0000

     PERCENT DISCREPANCY =           0.00         PERCENT DISCREPANCY =           0.00



1
  VOLUMETRIC BUDGET FOR ENTIRE MODEL AT END OF TIME STEP    1, STRESS PERIOD  20
  ------------------------------------------------------------------------------

     CUMULATIVE VOLUMES      L**3       RATES FOR THIS TIME STEP      L**3/T
     ------------------                 ------------------------

           IN:                                      IN:
           ---                                      ---
             STORAGE     =   653789440.0000               STORAGE     =          58.3051
       CONSTANT HEAD     =           0.0000         CONSTANT HEAD     =           0.0000
     HEAD DEP BOUNDS     =    13561080.0000       HEAD DEP BOUNDS     =           0.2855
      STREAM LEAKAGE     =   596912640.0000        STREAM LEAKAGE     =          12.8081
        UZF RECHARGE     =      797071.5625          UZF RECHARGE     =           0.0000
               GW ET     =           0.0000                 GW ET     =           0.0000
     SURFACE LEAKAGE     =           0.0000       SURFACE LEAKAGE     =           0.0000
           AG WELLS      =           0.0000             AG WELLS      =           0.0000

                TOTAL IN =  1265060224.0000                  TOTAL IN =          71.3986

          OUT:                                     OUT:
          ----                                     ----
             STORAGE     =   254103536.0000               STORAGE     =           0.3679
       CONSTANT HEAD     =           0.0000         CONSTANT HEAD     =           0.0000
     HEAD DEP BOUNDS     =    14005159.0000       HEAD DEP BOUNDS     =           0.2960
      STREAM LEAKAGE     =   490713056.0000        STREAM LEAKAGE     =          10.3269
        UZF RECHARGE     =           0.0000          UZF RECHARGE     =           0.0000
               GW ET     =    16302811.0000                 GW ET     =           0.7530
     SURFACE LEAKAGE     =           0.0000       SURFACE LEAKAGE     =           0.0000
           AG WELLS      =   489937536.0000             AG WELLS      =          59.6551

               TOTAL OUT =  1265062144.0000                 TOTAL OUT =          71.3988

                IN - OUT =       -1920.0000                  IN - OUT =      -2.0599E-04

     PERCENT DISCREPANCY =          -0.00         PERCENT DISCREPANCY =          -0.00






         TIME SUMMARY AT END OF TIME STEP    1 IN STRESS PERIOD   20
                    SECONDS     MINUTES      HOURS       DAYS        YEARS
                    -----------------------------------------------------------
   TIME STEP LENGTH  87667.      1461.1      24.352      1.0147     2.77799E-03
 STRESS PERIOD TIME  87667.      1461.1      24.352      1.0147     2.77799E-03
         TOTAL TIME 4.75142E+07 7.91903E+05  13198.      549.93      1.5056    
1
 
 SOLVING FOR HEAD 
                                                   Max.-Head-Change                         Max.-Flux-Residual
  Residual-Control   Outer-Iter.   Inner-Iter.     Column Row Layer    Maximum-Head-Change  Column Row Layer    Maximum-Flux-Residual          L2-NORM 
          0                 1           2             4    7     1      -0.1616465035E+00       4    7    1        -0.8455381288E+01      0.1961823294E+02
          0                 2           2             4    7     1       0.1572353030E-01       4    7    1         0.8455204000E+00      0.1961782504E+01
          0                 3           2             4    7     1      -0.1070716729E-02       4    7    1        -0.5918662130E-01      0.1373239317E+00
          0                 4           1             4    7     1       0.4260480837E-04       4    7    1         0.2420735404E-02      0.5616489745E-02

    ------------------------------------------------
       NWT REQUIRED            4 OUTER ITERATIONS 
       AND A TOTAL OF          7 INNER ITERATIONS.
    ------------------------------------------------

 NO OUTPUT CONTROL FOR STRESS PERIOD   20   TIME STEP    2
 
 SOLVING FOR HEAD 
                                                   Max.-Head-Change                         Max.-Flux-Residual
  Residual-Control   Outer-Iter.   Inner-Iter.     Column Row Layer    Maximum-Head-Change  Column Row Layer    Maximum-Flux-Residual          L2-NORM 
          0                 1           2             4    7     1      -0.1605199739E+00       4    7    1        -0.8399100174E+01      0.1932126200E+02
          0                 2           2             4    7     1       0.1561393558E-01       4    7    1         0.8398913293E+00      0.1932090704E+01
          0                 3           2             4    7     1      -0.1063253873E-02       4    7    1        -0.5879259526E-01      0.1352459829E+00
          0                 4           1             4    7     1       0.4230785365E-04       4    7    1         0.2404619665E-02      0.5531518475E-02

    ------------------------------------------------
       NWT REQUIRED            4 OUTER ITERATIONS 
       AND A TOTAL OF          7 INNER ITERATIONS.
    ------------------------------------------------

 NO OUTPUT CONTROL FOR STRESS PERIOD   20   TIME STEP    3
 
 SOLVING FOR HEAD 
                                                   Max.-Head-Change                         Max.-Flux-Residual
  Residual-Control   Outer-Iter.   Inner-Iter.     Column Row Layer    Maximum-Head-Change  Column Row Layer    Maximum-Flux-Residual          L2-NORM 
          0                 1           2             4    7     1      -0.1593545110E+00       4    7    1        -0.8340563900E+01      0.1903857527E+02
          0                 2           2             4    7     1       0.1550055551E-01       4    7    1         0.8340368639E+00      0.1903824952E+01
          0                 3           2             4    7     1      -0.1055533231E-02       4    7    1        -0.5838279044E-01      0.1332676596E+00
          0                 4           1             4    7     1       0.4200064163E-04       4    7    1         0.2387858606E-02      0.5450625656E-02

    ------------------------------------------------
       NWT REQUIRED            4 OUTER ITERATIONS 
       AND A TOTAL OF          7 INNER ITERATIONS.
    ------------------------------------------------

 NO OUTPUT CONTROL FOR STRESS PERIOD   20   TIME STEP    4
 
 SOLVING FOR HEAD 
                                                   Max.-Head-Change                         Max.-Flux-Residual
  Residual-Control   Outer-Iter.   Inner-Iter.     Column Row Layer    Maximum-Head-Change  Column Row Layer    Maximum-Flux-Residual          L2-NORM 
          0                 1           2             4    7     1      -0.1581543011E+00       4    7    1        -0.8280003566E+01      0.1876874744E+02
          0                 2           2             4    7     1       0.1538379718E-01       4    7    1         0.8279801048E+00      0.1876843820E+01
          0                 3           2             4    7     1      -0.1047582526E-02       4    7    1        -0.5795882399E-01      0.1313791313E+00
          0                 4           1             4    7     1       0.4168427536E-04       4    7    1         0.2370518327E-02      0.5373404625E-02

    ------------------------------------------------
       NWT REQUIRED            4 OUTER ITERATIONS 
       AND A TOTAL OF          7 INNER ITERATIONS.
    ------------------------------------------------

 NO OUTPUT CONTROL FOR STRESS PERIOD   20   TIME STEP    5
 
 SOLVING FOR HEAD 
                                                   Max.-Head-Change                         Max.-Flux-Residual
  Residual-Control   Outer-Iter.   Inner-Iter.     Column Row Layer    Maximum-Head-Change  Column Row Layer    Maximum-Flux-Residual          L2-NORM 
          0                 1           2             4    7     1      -0.1569230710E+00       4    7    1        -0.8217625095E+01      0.1851067362E+02
          0                 2           2             4    7     1       0.1526402297E-01       4    7    1         0.8217416358E+00      0.1851037481E+01
          0                 3           2             4    7     1      -0.1039426435E-02       4    7    1        -0.5752213686E-01      0.1295727820E+00
          0                 4           1             4    7     1       0.4135973641E-04       4    7    1         0.2352657767E-02      0.5299532665E-02

    ------------------------------------------------
       NWT REQUIRED            4 OUTER ITERATIONS 
       AND A TOTAL OF          7 INNER ITERATIONS.
    ------------------------------------------------

 NO OUTPUT CONTROL FOR STRESS PERIOD   20   TIME STEP    6
 
 SOLVING FOR HEAD 
                                                   Max.-Head-Change                         Max.-Flux-Residual
  Residual-Control   Outer-Iter.   Inner-Iter.     Column Row Layer    Maximum-Head-Change  Column Row Layer    Maximum-Flux-Residual          L2-NORM 
          0                 1           2             4    7     1      -0.1556648989E+00       4    7    1        -0.8153653915E+01      0.1826346232E+02
          0                 2           2             4    7     1       0.1514162945E-01       4    7    1         0.8153439912E+00      0.1826317077E+01
          0                 3           2             4    7     1      -0.1031091965E-02       4    7    1        -0.5707430651E-01      0.1278423912E+00
          0                 4           1             4    7     1       0.4102809985E-04       4    7    1         0.2334341460E-02      0.5228750384E-02

    ------------------------------------------------
       NWT REQUIRED            4 OUTER ITERATIONS 
       AND A TOTAL OF          7 INNER ITERATIONS.
    ------------------------------------------------

 NO OUTPUT CONTROL FOR STRESS PERIOD   20   TIME STEP    7
 
 SOLVING FOR HEAD 
                                                   Max.-Head-Change                         Max.-Flux-Residual
  Residual-Control   Outer-Iter.   Inner-Iter.     Column Row Layer    Maximum-Head-Change  Column Row Layer    Maximum-Flux-Residual          L2-NORM 
          0                 1           2             4    7     1      -0.1543829365E+00       4    7    1        -0.8088264845E+01      0.1802632875E+02
          0                 2           2             4    7     1       0.1501692309E-01       4    7    1         0.8088046455E+00      0.1802604283E+01
          0                 3           2             4    7     1      -0.1022599987E-02       4    7    1        -0.5661655626E-01      0.1261825250E+00
          0                 4           1             4    7     1       0.4069019585E-04       4    7    1         0.2315619430E-02      0.5160865735E-02

    ------------------------------------------------
       NWT REQUIRED            4 OUTER ITERATIONS 
       AND A TOTAL OF          7 INNER ITERATIONS.
    ------------------------------------------------

 NO OUTPUT CONTROL FOR STRESS PERIOD   20   TIME STEP    8
 
 SOLVING FOR HEAD 
                                                   Max.-Head-Change                         Max.-Flux-Residual
  Residual-Control   Outer-Iter.   Inner-Iter.     Column Row Layer    Maximum-Head-Change  Column Row Layer    Maximum-Flux-Residual          L2-NORM 
          0                 1           2             4    7     1      -0.1530807641E+00       4    7    1        -0.8021656030E+01      0.1779860810E+02
          0                 2           2             4    7     1       0.1489025205E-01       4    7    1         0.8021434061E+00      0.1779832699E+01
          0                 3           2             4    7     1      -0.1013974209E-02       4    7    1        -0.5615027269E-01      0.1245885289E+00
          0                 4           1             4    7     1       0.4034696778E-04       4    7    1         0.2296548385E-02      0.5095669048E-02

    ------------------------------------------------
       NWT REQUIRED            4 OUTER ITERATIONS 
       AND A TOTAL OF          7 INNER ITERATIONS.
    ------------------------------------------------

 NO OUTPUT CONTROL FOR STRESS PERIOD   20   TIME STEP    9
 
 SOLVING FOR HEAD 
                                                   Max.-Head-Change                         Max.-Flux-Residual
  Residual-Control   Outer-Iter.   Inner-Iter.     Column Row Layer    Maximum-Head-Change  Column Row Layer    Maximum-Flux-Residual          L2-NORM 
          0                 1           2             4    7     1      -0.1517611945E+00       4    7    1        -0.7953984775E+01      0.1757965508E+02
          0                 2           2             4    7     1       0.1476188855E-01       4    7    1         0.7953759963E+00      0.1757906455E+01
          0                 3           2             4    7     1      -0.1005233171E-02       4    7    1        -0.5567655649E-01      0.1230537060E+00
          0                 4           1             4    7     1       0.3999915337E-04       4    7    1         0.2277173344E-02      0.5032901164E-02

    ------------------------------------------------
       NWT REQUIRED            4 OUTER ITERATIONS 
       AND A TOTAL OF          7 INNER ITERATIONS.
    ------------------------------------------------

 NO OUTPUT CONTROL FOR STRESS PERIOD   20   TIME STEP   10
 
 SOLVING FOR HEAD 
                                                   Max.-Head-Change                         Max.-Flux-Residual
  Residual-Control   Outer-Iter.   Inner-Iter.     Column Row Layer    Maximum-Head-Change  Column Row Layer    Maximum-Flux-Residual          L2-NORM 
          0                 1           2             4    7     1      -0.1504271507E+00       4    7    1        -0.7885412592E+01      0.1736896849E+02
          0                 2           2             4    7     1       0.1463212066E-01       4    7    1         0.7885185617E+00      0.1736869644E+01
          0                 3           2             4    7     1      -0.9963964884E-03       4    7    1        -0.5519653791E-01      0.1215811384E+00
          0                 4           1             4    7     1       0.3964753341E-04       4    7    1         0.2257540554E-02      0.4972671492E-02

    ------------------------------------------------
       NWT REQUIRED            4 OUTER ITERATIONS 
       AND A TOTAL OF          7 INNER ITERATIONS.
    ------------------------------------------------

 NO OUTPUT CONTROL FOR STRESS PERIOD   20   TIME STEP   11
 
 SOLVING FOR HEAD 
                                                   Max.-Head-Change                         Max.-Flux-Residual
  Residual-Control   Outer-Iter.   Inner-Iter.     Column Row Layer    Maximum-Head-Change  Column Row Layer    Maximum-Flux-Residual          L2-NORM 
          0                 1           2             4    7     1      -0.1490814106E+00       4    7    1        -0.7816095291E+01      0.1716602012E+02
          0                 2           2             4    7     1       0.1450121466E-01       4    7    1         0.7815866765E+00      0.1716575242E+01
          0                 3           2             4    7     1      -0.9874822967E-03       4    7    1        -0.5471130721E-01      0.1201605366E+00
          0                 4           1             4    7     1       0.3929282954E-04       4    7    1         0.2237694590E-02      0.4914573422E-02

    ------------------------------------------------
       NWT REQUIRED            4 OUTER ITERATIONS 
       AND A TOTAL OF          7 INNER ITERATIONS.
    ------------------------------------------------

 NO OUTPUT CONTROL FOR STRESS PERIOD   20   TIME STEP   12
 
 SOLVING FOR HEAD 
                                                   Max.-Head-Change                         Max.-Flux-Residual
  Residual-Control   Outer-Iter.   Inner-Iter.     Column Row Layer    Maximum-Head-Change  Column Row Layer    Maximum-Flux-Residual          L2-NORM 
          0                 1           2             4    7     1      -0.1477262596E+00       4    7    1        -0.7746159937E+01      0.1697033946E+02
          0                 2           2             4    7     1       0.1436939407E-01       4    7    1         0.7745930424E+00      0.1697007610E+01
          0                 3           2             4    7     1      -0.9785058161E-03       4    7    1        -0.5422175355E-01      0.1187907983E+00
          0                 4           1             4    7     1       0.3893564650E-04       4    7    1         0.2217671800E-02      0.4858547757E-02

    ------------------------------------------------
       NWT REQUIRED            4 OUTER ITERATIONS 
       AND A TOTAL OF          7 INNER ITERATIONS.
    ------------------------------------------------

 NO OUTPUT CONTROL FOR STRESS PERIOD   20   TIME STEP   13
 
 SOLVING FOR HEAD 
                                                   Max.-Head-Change                         Max.-Flux-Residual
  Residual-Control   Outer-Iter.   Inner-Iter.     Column Row Layer    Maximum-Head-Change  Column Row Layer    Maximum-Flux-Residual          L2-NORM 
          0                 1           2             4    7     1      -0.1463641235E+00       4    7    1        -0.7675742139E+01      0.1678149801E+02
          0                 2           2             4    7     1       0.1423689477E-01       4    7    1         0.7675512147E+00      0.1678123909E+01
          0                 3           2             4    7     1      -0.9694831109E-03       4    7    1        -0.5372882584E-01      0.1174689382E+00
          0                 4           1             4    7     1       0.3857662488E-04       4    7    1         0.2197511034E-02      0.4804481833E-02

    ------------------------------------------------
       NWT REQUIRED            4 OUTER ITERATIONS 
       AND A TOTAL OF          7 INNER ITERATIONS.
    ------------------------------------------------

 NO OUTPUT CONTROL FOR STRESS PERIOD   20   TIME STEP   14
 
 SOLVING FOR HEAD 
                                                   Max.-Head-Change                         Max.-Flux-Residual
  Residual-Control   Outer-Iter.   Inner-Iter.     Column Row Layer    Maximum-Head-Change  Column Row Layer    Maximum-Flux-Residual          L2-NORM 
          0                 1           2             4    7     1      -0.1449972777E+00       4    7    1        -0.7604969577E+01      0.1659910325E+02
          0                 2           2             4    7     1       0.1410393801E-01       4    7    1         0.7604739567E+00      0.1659884882E+01
          0                 3           2             4    7     1      -0.9604292478E-03       4    7    1        -0.5323341758E-01      0.1161922071E+00
          0                 4           1             4    7     1       0.3821636322E-04       4    7    1         0.2177248806E-02      0.4752263234E-02

    ------------------------------------------------
       NWT REQUIRED            4 OUTER ITERATIONS 
       AND A TOTAL OF          7 INNER ITERATIONS.
    ------------------------------------------------

 NO OUTPUT CONTROL FOR STRESS PERIOD   20   TIME STEP   15
 
 SOLVING FOR HEAD 
                                                   Max.-Head-Change                         Max.-Flux-Residual
  Residual-Control   Outer-Iter.   Inner-Iter.     Column Row Layer    Maximum-Head-Change  Column Row Layer    Maximum-Flux-Residual          L2-NORM 
          0                 1           2             4    7     1      -0.1436273371E+00       4    7    1        -0.7533932905E+01      0.1642279061E+02
          0                 2           2             4    7     1       0.1397068084E-01       4    7    1         0.7533703297E+00      0.1642254069E+01
          0                 3           2             4    7     1      -0.9513549212E-03       4    7    1        -0.5273616309E-01      0.1149580456E+00
          0                 4           1             4    7     1       0.3785528703E-04       4    7    1         0.2156911049E-02      0.4701788130E-02

    ------------------------------------------------
       NWT REQUIRED            4 OUTER ITERATIONS 
       AND A TOTAL OF          7 INNER ITERATIONS.
    ------------------------------------------------

 NO OUTPUT CONTROL FOR STRESS PERIOD   20   TIME STEP   16
 
 SOLVING FOR HEAD 
                                                   Max.-Head-Change                         Max.-Flux-Residual
  Residual-Control   Outer-Iter.   Inner-Iter.     Column Row Layer    Maximum-Head-Change  Column Row Layer    Maximum-Flux-Residual          L2-NORM 
          0                 1           2             4    7     1      -0.1422563763E+00       4    7    1        -0.7462748586E+01      0.1625223167E+02
          0                 2           2             4    7     1       0.1383732498E-01       4    7    1         0.7462519754E+00      0.1625198628E+01
          0                 3           2             4    7     1      -0.9422738699E-03       4    7    1        -0.5223787735E-01      0.1137641638E+00
          0                 4           1             4    7     1       0.3749394386E-04       4    7    1         0.2136531152E-02      0.4652958836E-02

    ------------------------------------------------
       NWT REQUIRED            4 OUTER ITERATIONS 
       AND A TOTAL OF          7 INNER ITERATIONS.
    ------------------------------------------------

 NO OUTPUT CONTROL FOR STRESS PERIOD   20   TIME STEP   17
 
 SOLVING FOR HEAD 
                                                   Max.-Head-Change                         Max.-Flux-Residual
  Residual-Control   Outer-Iter.   Inner-Iter.     Column Row Layer    Maximum-Head-Change  Column Row Layer    Maximum-Flux-Residual          L2-NORM 
          0                 1           2             4    7     1      -0.1408860809E+00       4    7    1        -0.7391511479E+01      0.1608711989E+02
          0                 2           2             4    7     1       0.1370403434E-01       4    7    1         0.7391283760E+00      0.1608687913E+01
          0                 3           2             4    7     1      -0.9331972542E-03       4    7    1        -0.5173922412E-01      0.1126084132E+00
          0                 4           1             4    7     1       0.3713277695E-04       4    7    1         0.2116136213E-02      0.4605689566E-02

    ------------------------------------------------
       NWT REQUIRED            4 OUTER ITERATIONS 
       AND A TOTAL OF          7 INNER ITERATIONS.
    ------------------------------------------------

 NO OUTPUT CONTROL FOR STRESS PERIOD   20   TIME STEP   18
 
 SOLVING FOR HEAD 
                                                   Max.-Head-Change                         Max.-Flux-Residual
  Residual-Control   Outer-Iter.   Inner-Iter.     Column Row Layer    Maximum-Head-Change  Column Row Layer    Maximum-Flux-Residual          L2-NORM 
          0                 1           2             4    7     1      -0.1395180381E+00       4    7    1        -0.7320310886E+01      0.1592717489E+02
          0                 2           2             4    7     1       0.1357096326E-01       4    7    1         0.7320084584E+00      0.1592693869E+01
          0                 3           2             4    7     1      -0.9241355863E-03       4    7    1        -0.5124082835E-01      0.1114888261E+00
          0                 4           1             4    7     1       0.3677220467E-04       4    7    1         0.2095751799E-02      0.4559898081E-02

    ------------------------------------------------
       NWT REQUIRED            4 OUTER ITERATIONS 
       AND A TOTAL OF          7 INNER ITERATIONS.
    ------------------------------------------------

 NO OUTPUT CONTROL FOR STRESS PERIOD   20   TIME STEP   19
 
 SOLVING FOR HEAD 
                                                   Max.-Head-Change                         Max.-Flux-Residual
  Residual-Control   Outer-Iter.   Inner-Iter.     Column Row Layer    Maximum-Head-Change  Column Row Layer    Maximum-Flux-Residual          L2-NORM 
          0                 1           2             4    7     1      -0.1381535001E+00       4    7    1        -0.7249217999E+01      0.1577212515E+02
          0                 2           2             4    7     1       0.1343823349E-01       4    7    1         0.7248993384E+00      0.1577189352E+01
          0                 3           2             4    7     1      -0.9150971558E-03       4    7    1        -0.5074318811E-01      0.1104035070E+00
          0                 4           1             4    7     1       0.3641255744E-04       4    7    1         0.2075398315E-02      0.4515508151E-02

    ------------------------------------------------
       NWT REQUIRED            4 OUTER ITERATIONS 
       AND A TOTAL OF          7 INNER ITERATIONS.
    ------------------------------------------------

 NO OUTPUT CONTROL FOR STRESS PERIOD   20   TIME STEP   20
 
 SOLVING FOR HEAD 
                                                   Max.-Head-Change                         Max.-Flux-Residual
  Residual-Control   Outer-Iter.   Inner-Iter.     Column Row Layer    Maximum-Head-Change  Column Row Layer    Maximum-Flux-Residual          L2-NORM 
          0                 1           2             4    7     1      -0.1367938077E+00       4    7    1        -0.7178308851E+01      0.1562172314E+02
          0                 2           2             4    7     1       0.1330597542E-01       4    7    1         0.7178086163E+00      0.1562149607E+01
          0                 3           2             4    7     1      -0.9060908429E-03       4    7    1        -0.5024683555E-01      0.1093507213E+00
          0                 4           1             4    7     1       0.3605418767E-04       4    7    1         0.2055097457E-02      0.4472448390E-02

    ------------------------------------------------
       NWT REQUIRED            4 OUTER ITERATIONS 
       AND A TOTAL OF          7 INNER ITERATIONS.
    ------------------------------------------------

 NO OUTPUT CONTROL FOR STRESS PERIOD   20   TIME STEP   21
 
 SOLVING FOR HEAD 
                                                   Max.-Head-Change                         Max.-Flux-Residual
  Residual-Control   Outer-Iter.   Inner-Iter.     Column Row Layer    Maximum-Head-Change  Column Row Layer    Maximum-Flux-Residual          L2-NORM 
          0                 1           2             4    7     1      -0.1354403868E+00       4    7    1        -0.7107663737E+01      0.1547575724E+02
          0                 2           2             4    7     1       0.1317432771E-01       4    7    1         0.7107443188E+00      0.1547553472E+01
          0                 3           2             4    7     1      -0.8971260903E-03       4    7    1        -0.4975233248E-01      0.1083289899E+00
          0                 4           1             4    7     1       0.3569747240E-04       4    7    1         0.2034872272E-02      0.4430660336E-02

    ------------------------------------------------
       NWT REQUIRED            4 OUTER ITERATIONS 
       AND A TOTAL OF          7 INNER ITERATIONS.
    ------------------------------------------------

 NO OUTPUT CONTROL FOR STRESS PERIOD   20   TIME STEP   22
 
 SOLVING FOR HEAD 
                                                   Max.-Head-Change                         Max.-Flux-Residual
  Residual-Control   Outer-Iter.   Inner-Iter.     Column Row Layer    Maximum-Head-Change  Column Row Layer    Maximum-Flux-Residual          L2-NORM 
          0                 1           2             4    7     1      -0.1340940669E+00       4    7    1        -0.7037330283E+01      0.1533400659E+02
          0                 2           2             4    7     1       0.1304337100E-01       4    7    1         0.7037112060E+00      0.1533378851E+01
          0                 3           2             4    7     1      -0.8882083898E-03       4    7    1        -0.4926001216E-01      0.1073367615E+00
          0                 4           1             4    7     1       0.3534262888E-04       4    7    1         0.2014736360E-02      0.4390078460E-02

    ------------------------------------------------
       NWT REQUIRED            4 OUTER ITERATIONS 
       AND A TOTAL OF          7 INNER ITERATIONS.
    ------------------------------------------------

 NO OUTPUT CONTROL FOR STRESS PERIOD   20   TIME STEP   23
 
 SOLVING FOR HEAD 
                                                   Max.-Head-Change                         Max.-Flux-Residual
  Residual-Control   Outer-Iter.   Inner-Iter.     Column Row Layer    Maximum-Head-Change  Column Row Layer    Maximum-Flux-Residual          L2-NORM 
          0                 1           2             4    7     1      -0.1327561195E+00       4    7    1        -0.6967380655E+01      0.1519628128E+02
          0                 2           2             4    7     1       0.1291322895E-01       4    7    1         0.6967164921E+00      0.1519606764E+01
          0                 3           2             4    7     1      -0.8793461618E-03       4    7    1        -0.4877037963E-01      0.1063727110E+00
          0                 4           1             4    7     1       0.3498999223E-04       4    7    1         0.1994710351E-02      0.4350648399E-02

    ------------------------------------------------
       NWT REQUIRED            4 OUTER ITERATIONS 
       AND A TOTAL OF          7 INNER ITERATIONS.
    ------------------------------------------------

 NO OUTPUT CONTROL FOR STRESS PERIOD   20   TIME STEP   24
 
 SOLVING FOR HEAD 
                                                   Max.-Head-Change                         Max.-Flux-Residual
  Residual-Control   Outer-Iter.   Inner-Iter.     Column Row Layer    Maximum-Head-Change  Column Row Layer    Maximum-Flux-Residual          L2-NORM 
          0                 1           2             4    7     1      -0.1314271257E+00       4    7    1        -0.6897848768E+01      0.1506238983E+02
          0                 2           2             4    7     1       0.1278395804E-01       4    7    1         0.6897635667E+00      0.1506218061E+01
          0                 3           2             4    7     1      -0.8705432535E-03       4    7    1        -0.4828367215E-01      0.1054354983E+00
          0                 4           1             4    7     1       0.3463971651E-04       4    7    1         0.1974803999E-02      0.4312317322E-02

    ------------------------------------------------
       NWT REQUIRED            4 OUTER ITERATIONS 
       AND A TOTAL OF          7 INNER ITERATIONS.
    ------------------------------------------------

 NO OUTPUT CONTROL FOR STRESS PERIOD   20   TIME STEP   25
 
 SOLVING FOR HEAD 
                                                   Max.-Head-Change                         Max.-Flux-Residual
  Residual-Control   Outer-Iter.   Inner-Iter.     Column Row Layer    Maximum-Head-Change  Column Row Layer    Maximum-Flux-Residual          L2-NORM 
          0                 1           2             4    7     1      -0.1301080634E+00       4    7    1        -0.6828790423E+01      0.1493215959E+02
          0                 2           2             4    7     1       0.1265565338E-01       4    7    1         0.6828580077E+00      0.1493195467E+01
          0                 3           2             4    7     1      -0.8618061412E-03       4    7    1        -0.4780028020E-01      0.1045239133E+00
          0                 4           1             4    7     1       0.3429205901E-04       4    7    1         0.1955033259E-02      0.4275032665E-02

    ------------------------------------------------
       NWT REQUIRED            4 OUTER ITERATIONS 
       AND A TOTAL OF          7 INNER ITERATIONS.
    ------------------------------------------------

 NO OUTPUT CONTROL FOR STRESS PERIOD   20   TIME STEP   26
 
 SOLVING FOR HEAD 
                                                   Max.-Head-Change                         Max.-Flux-Residual
  Residual-Control   Outer-Iter.   Inner-Iter.     Column Row Layer    Maximum-Head-Change  Column Row Layer    Maximum-Flux-Residual          L2-NORM 
          0                 1           2             4    7     1      -0.1287997745E+00       4    7    1        -0.6760253464E+01      0.1480544797E+02
          0                 2           2             4    7     1       0.1252839684E-01       4    7    1         0.6760045978E+00      0.1480524733E+01
          0                 3           2             4    7     1      -0.8531404006E-03       4    7    1        -0.4732053861E-01      0.1036369574E+00
          0                 4           1             4    7     1       0.3394724137E-04       4    7    1         0.1935411819E-02      0.4238757611E-02

    ------------------------------------------------
       NWT REQUIRED            4 OUTER ITERATIONS 
       AND A TOTAL OF          7 INNER ITERATIONS.
    ------------------------------------------------

 NO OUTPUT CONTROL FOR STRESS PERIOD   20   TIME STEP   27
 
 SOLVING FOR HEAD 
                                                   Max.-Head-Change                         Max.-Flux-Residual
  Residual-Control   Outer-Iter.   Inner-Iter.     Column Row Layer    Maximum-Head-Change  Column Row Layer    Maximum-Flux-Residual          L2-NORM 
          0                 1           2             4    7     1      -0.1275028974E+00       4    7    1        -0.6692275212E+01      0.1468208879E+02
          0                 2           2             4    7     1       0.1240225046E-01       4    7    1         0.6692070673E+00      0.1468189234E+01
          0                 3           2             4    7     1      -0.8445502572E-03       4    7    1        -0.4684470847E-01      0.1027734694E+00
          0                 4           1             4    7     1       0.3360543179E-04       4    7    1         0.1915950348E-02      0.4203439355E-02

    ------------------------------------------------
       NWT REQUIRED            4 OUTER ITERATIONS 
       AND A TOTAL OF          7 INNER ITERATIONS.
    ------------------------------------------------

 NO OUTPUT CONTROL FOR STRESS PERIOD   20   TIME STEP   28
 
 SOLVING FOR HEAD 
                                                   Max.-Head-Change                         Max.-Flux-Residual
  Residual-Control   Outer-Iter.   Inner-Iter.     Column Row Layer    Maximum-Head-Change  Column Row Layer    Maximum-Flux-Residual          L2-NORM 
          0                 1           2             4    7     1      -0.1262178840E+00       4    7    1        -0.6624882435E+01      0.1456194259E+02
          0                 2           2             4    7     1       0.1227725821E-01       4    7    1         0.6624680918E+00      0.1456175026E+01
          0                 3           2             4    7     1      -0.8360387042E-03       4    7    1        -0.4637297713E-01      0.1019324717E+00
          0                 4           1             4    7     1       0.3326674918E-04       4    7    1         0.1896656526E-02      0.4169041990E-02

    ------------------------------------------------
       NWT REQUIRED            4 OUTER ITERATIONS 
       AND A TOTAL OF          7 INNER ITERATIONS.
    ------------------------------------------------

 NO OUTPUT CONTROL FOR STRESS PERIOD   20   TIME STEP   29
 
 SOLVING FOR HEAD 
                                                   Max.-Head-Change                         Max.-Flux-Residual
  Residual-Control   Outer-Iter.   Inner-Iter.     Column Row Layer    Maximum-Head-Change  Column Row Layer    Maximum-Flux-Residual          L2-NORM 
          0                 1           2             4    7     1      -0.1249454115E+00       4    7    1        -0.6558110261E+01      0.1445984885E+02
          0                 2           2             4    7     1       0.1215348595E-01       4    7    1         0.6557911833E+00      0.1445936979E+01
          0                 3           2             4    7     1      -0.8276102271E-03       4    7    1        -0.4590559041E-01      0.1012131089E+00
          0                 4           1             4    7     1       0.3293137281E-04       4    7    1         0.1877540416E-02      0.4139465983E-02

    ------------------------------------------------
       NWT REQUIRED            4 OUTER ITERATIONS 
       AND A TOTAL OF          7 INNER ITERATIONS.
    ------------------------------------------------

 NO OUTPUT CONTROL FOR STRESS PERIOD   20   TIME STEP   30



 STREAM LISTING     PERIOD     20   STEP       30

 LAYER ROW COL. STREAM  RCH.  FLOW INTO     FLOW TO   FLOW OUT OF   OVRLND.     DIRECT     STREAM       STREAM     STREAM     STREAM   STREAMBED  STREAMBED
                SEG.NO.  NO.  STRM. RCH.    AQUIFER    STRM. RCH.    RUNOFF     PRECIP       ET          HEAD       DEPTH      WIDTH   CONDCTNC.   GRADIENT

   1    1    1     1     1    4.3035E+01  3.1412E-01   4.2721E+01  0.000E+00  0.000E+00  0.000E+00  1.09440E+03  1.353E+00  1.604E+01  7.216E-02  1.451E+00
   1    2    2     1     2    4.2721E+01  4.8658E-01   4.2235E+01  0.000E+00  0.000E+00  0.000E+00  1.08941E+03  1.350E+00  1.598E+01  1.118E-01  1.450E+00
   1    3    3     1     3    4.2235E+01  4.1507E-01   4.1819E+01  0.000E+00  0.000E+00  0.000E+00  1.08377E+03  1.347E+00  1.591E+01  9.548E-02  1.449E+00
   1    3    4     1     4    4.1819E+01  3.8230E-01   4.1437E+01  0.000E+00  0.000E+00  0.000E+00  1.07875E+03  1.344E+00  1.586E+01  8.800E-02  1.448E+00
   1    4    5     2     1    3.9437E+01  3.5748E-01   3.9080E+01  0.000E+00  0.000E+00  0.000E+00  1.07352E+03  1.583E+00  1.200E+01  7.800E-02  1.528E+00
   1    5    6     2     2    3.9080E+01  2.7453E-01   3.8805E+01  0.000E+00  0.000E+00  0.000E+00  1.06808E+03  1.575E+00  1.200E+01  6.000E-02  1.525E+00
   1    6    6     2     3    3.8805E+01  2.7413E-01   3.8531E+01  0.000E+00  0.000E+00  0.000E+00  1.06336E+03  1.569E+00  1.200E+01  6.000E-02  1.523E+00
   1    7    6     2     4    3.8531E+01  2.7372E-01   3.8257E+01  0.000E+00  0.000E+00  0.000E+00  1.05864E+03  1.562E+00  1.200E+01  6.000E-02  1.521E+00
   1    8    6     2     5    3.8257E+01  2.7332E-01   3.7984E+01  0.000E+00  0.000E+00  0.000E+00  1.05391E+03  1.555E+00  1.200E+01  6.000E-02  1.518E+00
   1    3    5     3     1    2.0000E+00  2.8252E-01   1.7175E+00  0.000E+00  0.000E+00  0.000E+00  1.07555E+03  1.909E+00  9.636E+00  7.227E-02  1.955E+00
   1    3    6     3     2    1.7175E+00  2.4905E-01   1.4684E+00  0.000E+00  0.000E+00  0.000E+00  1.07264E+03  1.727E+00  8.909E+00  6.682E-02  1.864E+00
   1    3    7     3     3    1.4684E+00  1.9718E-01   1.2712E+00  0.000E+00  0.000E+00  0.000E+00  1.06987E+03  1.555E+00  8.218E+00  5.547E-02  1.777E+00
   1    4    8     3     4    1.2712E+00  2.2567E-01   1.0456E+00  0.000E+00  0.000E+00  0.000E+00  1.06682E+03  1.364E+00  7.455E+00  6.709E-02  1.682E+00
   1    5    8     3     5    1.0456E+00  1.5790E-01   8.8768E-01  0.000E+00  0.000E+00  0.000E+00  1.06362E+03  1.164E+00  6.655E+00  4.991E-02  1.582E+00
   1    6    8     3     6    8.8768E-01  5.5980E-02   8.3170E-01  0.000E+00  0.000E+00  0.000E+00  1.06158E+03  1.036E+00  6.145E+00  1.844E-02  1.518E+00
   1    5   10     4     1    1.0000E+01  9.0919E-02   9.9091E+00  0.000E+00  0.000E+00  0.000E+00  1.07836E+03  6.368E-01  1.000E+01  2.500E-02  1.212E+00
   1    5    9     4     2    9.9091E+00  1.8158E-01   9.7275E+00  0.000E+00  0.000E+00  0.000E+00  1.07154E+03  6.315E-01  1.000E+01  5.000E-02  1.211E+00
   1    6    8     4     3    9.7275E+00  1.2689E-01   9.6006E+00  0.000E+00  0.000E+00  0.000E+00  1.06381E+03  6.256E-01  1.000E+01  3.500E-02  1.209E+00
   1    6    8     5     1    1.0432E+01  2.2686E-01   1.0205E+01  0.000E+00  0.000E+00  0.000E+00  1.05868E+03  6.790E-01  1.542E+01  6.166E-02  1.226E+00
   1    7    7     5     2    1.0205E+01  2.7894E-01   9.9265E+00  0.000E+00  0.000E+00  0.000E+00  1.05417E+03  6.732E-01  1.519E+01  7.594E-02  1.224E+00
   1    8    7     5     3    9.9265E+00  1.9221E-01   9.7343E+00  0.000E+00  0.000E+00  0.000E+00  1.04992E+03  6.676E-01  1.497E+01  5.241E-02  1.223E+00
   1    8    6     5     4    9.7343E+00  1.3577E-01   9.5985E+00  0.000E+00  0.000E+00  0.000E+00  1.04691E+03  6.637E-01  1.482E+01  3.706E-02  1.221E+00
   1    9    6     6     1    4.7583E+01  2.8760E-01   4.7295E+01  0.000E+00  0.000E+00  0.000E+00  1.04452E+03  1.793E+00  1.200E+01  6.000E-02  1.598E+00
   1   10    7     6     2    4.7295E+01  2.8721E-01   4.7008E+01  0.000E+00  0.000E+00  0.000E+00  1.03997E+03  1.787E+00  1.200E+01  6.000E-02  1.596E+00
   1   11    7     6     3    4.7008E+01  2.8681E-01   4.6721E+01  0.000E+00  0.000E+00  0.000E+00  1.03542E+03  1.780E+00  1.200E+01  6.000E-02  1.593E+00
   1   12    7     6     4    4.6721E+01  2.8642E-01   4.6434E+01  0.000E+00  0.000E+00  0.000E+00  1.03086E+03  1.774E+00  1.200E+01  6.000E-02  1.591E+00
   1   13    7     6     5    4.6434E+01  1.4238E-02   4.6420E+01  0.000E+00  0.000E+00  0.000E+00  1.02768E+03  1.770E+00  1.200E+01  2.400E-02  1.977E-01
   1   14    9     7     1    1.5000E+02  1.3324E+00   1.4867E+02  0.000E+00  0.000E+00  0.000E+00  1.03987E+03  2.288E+00  5.529E+01  5.593E-01  7.941E-01
   1   13    8     7     2    1.4867E+02  1.8292E+00   1.4684E+02  0.000E+00  0.000E+00  0.000E+00  1.03478E+03  2.279E+00  5.526E+01  6.148E-01  9.918E-01
   1   13    7     7     3    1.4684E+02  1.4541E+00   1.4538E+02  0.000E+00  0.000E+00  0.000E+00  1.02969E+03  2.271E+00  5.522E+01  5.585E-01  8.679E-01
   1   13    6     8     1    1.9180E+02  9.8812E-01   1.9082E+02  0.000E+00  0.000E+00  0.000E+00  1.02496E+03  3.086E+00  4.475E+01  4.560E-01  7.224E-01
   1   13    5     8     2    1.9082E+02  2.0888E-01   1.9061E+02  0.000E+00  0.000E+00  0.000E+00  1.01871E+03  3.082E+00  4.469E+01  4.554E-01  1.529E-01
   1   13    4     8     3    1.9061E+02 -2.4482E+00   1.9306E+02  0.000E+00  0.000E+00  0.000E+00  1.01246E+03  3.089E+00  4.479E+01  4.564E+00 -1.788E-01
   1   13    3     8     4    1.9306E+02 -3.5774E+00   1.9663E+02  0.000E+00  0.000E+00  0.000E+00  1.00623E+03  3.107E+00  4.505E+01  4.591E+00 -2.597E-01
   1   13    2     8     5    1.9663E+02 -2.7406E+00   1.9937E+02  0.000E+00  0.000E+00  0.000E+00  1.00000E+03  3.126E+00  4.533E+01  4.619E+00 -1.978E-01
   1   13    1     8     6    1.9937E+02 -2.1020E+00   2.0148E+02  0.000E+00  0.000E+00  0.000E+00  9.95015E+02  3.140E+00  4.553E+01  2.784E+00 -2.517E-01





UNSATURATED ZONE PACKAGE VOLUMETRIC BUDGET FOR  TIME STEP    30 STRESS PERIOD   20
  ------------------------------------------------------------------------------



     CUMULATIVE VOLUMES      L**3       RATES FOR THIS TIME STEP      L**3/T
     ------------------                 ------------------------

           IN:                                      IN:
           ---                                      ---
        INFILTRATION =   861796156.1899          INFILTRATION =          64.0373

          OUT:                                     OUT:
          ----                                     ----
              UZF ET =   805319244.5128                UZF ET =          64.1075
        UZF RECHARGE =      797071.6500          UZF RECHARGE =       0.0000E+00

            IN - OUT =    55679840.0271              IN - OUT =      -7.0169E-02

          STORAGE:                                 STORAGE:
          --------                                 --------
      STORAGE CHANGE =    55681488.5430        STORAGE CHANGE =      -7.0169E-02

 PERCENT DISCREPANCY IS DIFFERENCE BETWEEN IN-OUT MINUS CHANGE IN STORAGE
 DIVIDED BY THE AVERAGE OF IN AND OUT TIMES 100

 PERCENT DISCREPANCY =          -0.00     PERCENT DISCREPANCY =           0.00






1
  VOLUMETRIC BUDGET FOR ENTIRE MODEL AT END OF TIME STEP   30, STRESS PERIOD  20
  ------------------------------------------------------------------------------

     CUMULATIVE VOLUMES      L**3       RATES FOR THIS TIME STEP      L**3/T
     ------------------                 ------------------------

           IN:                                      IN:
           ---                                      ---
               AG WELLS  =   641480192.0000                 AG WELLS  =          59.6298
      DIVERSION SEGMENTS =           0.0000        DIVERSION SEGMENTS =           0.0000
           GW IRRIGATION =           0.0000             GW IRRIGATION =           0.0000
           SW IRRIGATION =           0.0000             SW IRRIGATION =           0.0000
        SYSTEM LOSSES GW =           0.0000          SYSTEM LOSSES GW =           0.0000
        SYSTEM LOSSES SW =           0.0000          SYSTEM LOSSES SW =           0.0000

                TOTAL IN =   641480192.0000                  TOTAL IN =          59.6298

          OUT:                                     OUT:
          ----                                     ----
               AG WELLS  =           0.0000                 AG WELLS  =           0.0000
      DIVERSION SEGMENTS =           0.0000        DIVERSION SEGMENTS =           0.0000
           GW IRRIGATION =   641480192.0000             GW IRRIGATION =          59.6298
           SW IRRIGATION =           0.0000             SW IRRIGATION =           0.0000
        SYSTEM LOSSES GW =           0.0000          SYSTEM LOSSES GW =           0.0000
        SYSTEM LOSSES SW =           0.0000          SYSTEM LOSSES SW =           0.0000

               TOTAL OUT =   641480192.0000                 TOTAL OUT =          59.6298

                IN - OUT =           0.0000                  IN - OUT =           0.0000

     PERCENT DISCREPANCY =           0.00         PERCENT DISCREPANCY =           0.00



1
  VOLUMETRIC BUDGET FOR ENTIRE MODEL AT END OF TIME STEP   30, STRESS PERIOD  20
  ------------------------------------------------------------------------------

     CUMULATIVE VOLUMES      L**3       RATES FOR THIS TIME STEP      L**3/T
     ------------------                 ------------------------

           IN:                                      IN:
           ---                                      ---
             STORAGE     =   800589440.0000               STORAGE     =          58.5968
       CONSTANT HEAD     =           0.0000         CONSTANT HEAD     =           0.0000
     HEAD DEP BOUNDS     =    14286925.0000       HEAD DEP BOUNDS     =           0.2855
      STREAM LEAKAGE     =   629476992.0000        STREAM LEAKAGE     =          12.4277
        UZF RECHARGE     =      797071.5625          UZF RECHARGE     =           0.0000
               GW ET     =           0.0000                 GW ET     =           0.0000
     SURFACE LEAKAGE     =           0.0000       SURFACE LEAKAGE     =           0.0000
           AG WELLS      =           0.0000             AG WELLS      =           0.0000

                TOTAL IN =  1445150336.0000                  TOTAL IN =          71.3101

          OUT:                                     OUT:
          ----                                     ----
             STORAGE     =   255017136.0000               STORAGE     =           0.2835
       CONSTANT HEAD     =           0.0000         CONSTANT HEAD     =           0.0000
     HEAD DEP BOUNDS     =    14756624.0000       HEAD DEP BOUNDS     =           0.2953
      STREAM LEAKAGE     =   516622880.0000        STREAM LEAKAGE     =          10.8682
        UZF RECHARGE     =           0.0000          UZF RECHARGE     =           0.0000
               GW ET     =    17276040.0000                 GW ET     =           0.2335
     SURFACE LEAKAGE     =           0.0000       SURFACE LEAKAGE     =           0.0000
           AG WELLS      =   641480192.0000             AG WELLS      =          59.6298

               TOTAL OUT =  1445152896.0000                 TOTAL OUT =          71.3103

                IN - OUT =       -2560.0000                  IN - OUT =      -2.1362E-04

     PERCENT DISCREPANCY =          -0.00         PERCENT DISCREPANCY =          -0.00






         TIME SUMMARY AT END OF TIME STEP   30 IN STRESS PERIOD   20
                    SECONDS     MINUTES      HOURS       DAYS        YEARS
                    -----------------------------------------------------------
   TIME STEP LENGTH  87667.      1461.1      24.352      1.0147     2.77799E-03
 STRESS PERIOD TIME 2.63000E+06  43833.      730.56      30.440     8.33397E-02
         TOTAL TIME 5.00565E+07 8.34276E+05  13905.      579.36      1.5862    
1
1
                            STRESS PERIOD NO.   21, LENGTH =   2630000.    
                            -----------------------------------------------

                              NUMBER OF TIME STEPS =    30

                               MULTIPLIER FOR DELT =     1.000

                            INITIAL TIME STEP SIZE =   87666.66    

 REUSING NON-PARAMETER GHB CELLS FROM LAST STRESS PERIOD

      2 GHB CELLS

 REUSING STREAM SEGMENT DATA FROM LAST STRESS PERIOD



            AREAL INFILTRATION RATE
 READING ON UNIT   19 WITH FORMAT: (10F4.0)            

            1           2           3           4           5           6           7           8           9          10
 ........................................................................................................................
   1   1.2000E-09   0.000       0.000       0.000       0.000       0.000       0.000       0.000       0.000       0.000    
   2   2.1000E-09  2.0000E-09  8.0000E-10  8.5000E-09   0.000       0.000       0.000       0.000       0.000       0.000    
   3   5.0000E-10  1.1000E-09  8.8000E-09  5.5000E-09   0.000       0.000       0.000       0.000       0.000       0.000    
   4   8.5000E-09  1.1000E-09  1.1000E-09  1.1000E-09  2.0000E-09   0.000       0.000       0.000       0.000       0.000    
   5   8.5000E-09  1.1000E-09  1.1000E-09  1.1000E-09  1.1000E-09   0.000       0.000       0.000       0.000       0.000    
   6   8.5000E-09  5.2000E-09  2.1000E-09  1.1000E-09  1.5000E-09   0.000       0.000       0.000       0.000       0.000    
   7   8.5000E-09  5.2000E-09  2.1000E-09  1.2000E-09  2.0000E-09   0.000       0.000       0.000       0.000       0.000    
   8   5.0000E-10  5.2000E-09  2.1000E-09  1.2000E-09  5.0000E-09   0.000       0.000       0.000       0.000       0.000    
   9   5.0000E-10  5.2000E-09  2.1000E-09  1.2000E-09  5.0000E-09   0.000       0.000       0.000       0.000       0.000    
  10   5.0000E-10  5.2000E-09  2.1000E-09  1.2000E-09  5.8000E-09   0.000       0.000       0.000       0.000       0.000    
  11   1.0000E-10  1.1000E-09  1.1000E-09  1.2000E-09  5.0000E-09   0.000       0.000       0.000       0.000       0.000    
  12   1.1000E-09  1.1000E-09  1.1000E-09  1.1000E-09  2.0000E-09   0.000       0.000       0.000       0.000       0.000    
  13   1.1000E-09  2.2000E-09  2.2000E-09  2.1000E-09  1.0000E-09   0.000       0.000       0.000       0.000       0.000    
  14   2.0000E-10  5.5000E-09  5.5000E-09  5.2000E-09  1.0000E-09   0.000       0.000       0.000       0.000       0.000    
  15    0.000      8.8000E-09  8.8000E-09   0.000       0.000       0.000       0.000       0.000       0.000       0.000    

                  ET RATE =  3.250000E-07

 USING ET EXTINCTION DEPTH FROM PREVIOUS STRESS PERIOD. CURRENT PERIOD IS:      21

 USING EXTINCTION WATER CONTENT FROM PREVIOUS STRESS PERIOD. CURRENT PERIOD IS:      21

 USING AIR ENTRY PRESSURE FROM PREVIOUS STRESS PERIOD. CURRENT PERIOD IS:      21

 USING ROOT PRESSURE HEAD FROM PREVIOUS STRESS PERIOD. CURRENT PERIOD IS:      21

 USING ROOT ACTIVITY FROM PREVIOUS STRESS PERIOD. CURRENT PERIOD IS:      21

 PROCESSING AG STRESS PERIOD DATA

 READING AG STRESS PERIOD DATA

 READING IRRIGATION WELL

 END PROCESSING AG STRESS PERIOD DATA OPTIONS
 
 SOLVING FOR HEAD 
                                                   Max.-Head-Change                         Max.-Flux-Residual
  Residual-Control   Outer-Iter.   Inner-Iter.     Column Row Layer    Maximum-Head-Change  Column Row Layer    Maximum-Flux-Residual          L2-NORM 
          0                 1           2             4    7     1      -0.8776986785E-01       4    7    1        -0.4616990347E+01      0.1034347888E+02
          0                 2           2             4    7     1       0.8537436542E-02       4    7    1         0.4616869914E+00      0.1034309132E+01
          0                 3           2             4    7     1      -0.5813695209E-03       4    7    1        -0.3231821730E-01      0.7243329207E-01
          0                 4           1             4    7     1       0.2313322954E-04       4    7    1         0.1321816400E-02      0.2967353941E-02

    ------------------------------------------------
       NWT REQUIRED            4 OUTER ITERATIONS 
       AND A TOTAL OF          7 INNER ITERATIONS.
    ------------------------------------------------

 NO OUTPUT CONTROL FOR STRESS PERIOD   21   TIME STEP    1
 
 SOLVING FOR HEAD 
                                                   Max.-Head-Change                         Max.-Flux-Residual
  Residual-Control   Outer-Iter.   Inner-Iter.     Column Row Layer    Maximum-Head-Change  Column Row Layer    Maximum-Flux-Residual          L2-NORM 
          0                 1           2             4    7     1      -0.8671083341E-01       4    7    1        -0.4560446036E+01      0.1027878219E+02
          0                 2           2             4    7     1       0.8434427028E-02       4    7    1         0.4560329457E+00      0.1027811619E+01
          0                 3           2             4    7     1      -0.5743548998E-03       4    7    1        -0.3192243029E-01      0.7194156492E-01
          0                 4           1             4    7     1       0.2285411165E-04       4    7    1         0.1305628717E-02      0.2942101845E-02

    ------------------------------------------------
       NWT REQUIRED            4 OUTER ITERATIONS 
       AND A TOTAL OF          7 INNER ITERATIONS.
    ------------------------------------------------

 NO OUTPUT CONTROL FOR STRESS PERIOD   21   TIME STEP    2
 
 SOLVING FOR HEAD 
                                                   Max.-Head-Change                         Max.-Flux-Residual
  Residual-Control   Outer-Iter.   Inner-Iter.     Column Row Layer    Maximum-Head-Change  Column Row Layer    Maximum-Flux-Residual          L2-NORM 
          0                 1           2             4    7     1      -0.8568006122E-01       4    7    1        -0.4505421822E+01      0.1021644509E+02
          0                 2           2             4    7     1       0.8334166421E-02       4    7    1         0.4505308935E+00      0.1021589285E+01
          0                 3           2             4    7     1      -0.5675274709E-03       4    7    1        -0.3153728296E-01      0.7150705987E-01
          0                 4           1             4    7     1       0.2258244206E-04       4    7    1         0.1289876184E-02      0.2924393669E-02

    ------------------------------------------------
       NWT REQUIRED            4 OUTER ITERATIONS 
       AND A TOTAL OF          7 INNER ITERATIONS.
    ------------------------------------------------

 NO OUTPUT CONTROL FOR STRESS PERIOD   21   TIME STEP    3
 
 SOLVING FOR HEAD 
                                                   Max.-Head-Change                         Max.-Flux-Residual
  Residual-Control   Outer-Iter.   Inner-Iter.     Column Row Layer    Maximum-Head-Change  Column Row Layer    Maximum-Flux-Residual          L2-NORM 
          0                 1           2             4    7     1      -0.8467640869E-01       4    7    1        -0.4451856745E+01      0.1015594156E+02
          0                 2           2             4    7     1       0.8236543593E-02       4    7    1         0.4451747396E+00      0.1015547710E+01
          0                 3           2             4    7     1      -0.5608796674E-03       4    7    1        -0.3116234870E-01      0.7108493078E-01
          0                 4           1             4    7     1       0.2231791971E-04       4    7    1         0.1274541343E-02      0.2907192220E-02

    ------------------------------------------------
       NWT REQUIRED            4 OUTER ITERATIONS 
       AND A TOTAL OF          7 INNER ITERATIONS.
    ------------------------------------------------

 NO OUTPUT CONTROL FOR STRESS PERIOD   21   TIME STEP    4
 
 SOLVING FOR HEAD 
                                                   Max.-Head-Change                         Max.-Flux-Residual
  Residual-Control   Outer-Iter.   Inner-Iter.     Column Row Layer    Maximum-Head-Change  Column Row Layer    Maximum-Flux-Residual          L2-NORM 
          0                 1           2             4    7     1      -0.8369901803E-01       4    7    1        -0.4399705148E+01      0.1009706030E+02
          0                 2           2             4    7     1       0.8141475110E-02       4    7    1         0.4399599189E+00      0.1009666509E+01
          0                 3           2             4    7     1      -0.5544058075E-03       4    7    1        -0.3079730787E-01      0.7067383784E-01
          0                 4           1             4    7     1       0.2206031905E-04       4    7    1         0.1259611193E-02      0.2890402520E-02

    ------------------------------------------------
       NWT REQUIRED            4 OUTER ITERATIONS 
       AND A TOTAL OF          7 INNER ITERATIONS.
    ------------------------------------------------

 NO OUTPUT CONTROL FOR STRESS PERIOD   21   TIME STEP    5
 
 SOLVING FOR HEAD 
                                                   Max.-Head-Change                         Max.-Flux-Residual
  Residual-Control   Outer-Iter.   Inner-Iter.     Column Row Layer    Maximum-Head-Change  Column Row Layer    Maximum-Flux-Residual          L2-NORM 
          0                 1           2             4    7     1      -0.8274705051E-01       4    7    1        -0.4348922547E+01      0.1003964482E+02
          0                 2           2             4    7     1       0.8048879398E-02       4    7    1         0.4348819836E+00      0.1003930407E+01
          0                 3           2             4    7     1      -0.5481003363E-03       4    7    1        -0.3044184919E-01      0.7027277264E-01
          0                 4           1             4    7     1       0.2180941871E-04       4    7    1         0.1245072915E-02      0.2873963841E-02

    ------------------------------------------------
       NWT REQUIRED            4 OUTER ITERATIONS 
       AND A TOTAL OF          7 INNER ITERATIONS.
    ------------------------------------------------

 NO OUTPUT CONTROL FOR STRESS PERIOD   21   TIME STEP    6
 
 SOLVING FOR HEAD 
                                                   Max.-Head-Change                         Max.-Flux-Residual
  Residual-Control   Outer-Iter.   Inner-Iter.     Column Row Layer    Maximum-Head-Change  Column Row Layer    Maximum-Flux-Residual          L2-NORM 
          0                 1           2             4    7     1      -0.8181943310E-01       4    7    1        -0.4299450921E+01      0.9983586621E+01
          0                 2           2             4    7     1       0.7958652135E-02       4    7    1         0.4299351324E+00      0.9983646406E+00
          0                 3           2             4    7     1      -0.5419561495E-03       4    7    1        -0.3009556651E-01      0.6988358946E-01
          0                 4           1             4    7     1       0.2156493604E-04       4    7    1         0.1230909942E-02      0.2858094325E-02

    ------------------------------------------------
       NWT REQUIRED            4 OUTER ITERATIONS 
       AND A TOTAL OF          7 INNER ITERATIONS.
    ------------------------------------------------

 NO OUTPUT CONTROL FOR STRESS PERIOD   21   TIME STEP    7
 
 SOLVING FOR HEAD 
                                                   Max.-Head-Change                         Max.-Flux-Residual
  Residual-Control   Outer-Iter.   Inner-Iter.     Column Row Layer    Maximum-Head-Change  Column Row Layer    Maximum-Flux-Residual          L2-NORM 
          0                 1           2             4    7     1      -0.8091552303E-01       4    7    1        -0.4251256423E+01      0.9928762203E+01
          0                 2           2             4    7     1       0.7870730728E-02       4    7    1         0.4251159810E+00      0.9928890240E+00
          0                 3           2             4    7     1      -0.5359689848E-03       4    7    1        -0.2975822293E-01      0.6950061119E-01
          0                 4           1             4    7     1       0.2132670146E-04       4    7    1         0.1217112603E-02      0.2842491058E-02

    ------------------------------------------------
       NWT REQUIRED            4 OUTER ITERATIONS 
       AND A TOTAL OF          7 INNER ITERATIONS.
    ------------------------------------------------

 NO OUTPUT CONTROL FOR STRESS PERIOD   21   TIME STEP    8
 
 SOLVING FOR HEAD 
                                                   Max.-Head-Change                         Max.-Flux-Residual
  Residual-Control   Outer-Iter.   Inner-Iter.     Column Row Layer    Maximum-Head-Change  Column Row Layer    Maximum-Flux-Residual          L2-NORM 
          0                 1           2             4    7     1      -0.8003429695E-01       4    7    1        -0.4204283936E+01      0.9875081657E+01
          0                 2           2             4    7     1       0.7785015601E-02       4    7    1         0.4204190182E+00      0.9874851372E+00
          0                 3           2             4    7     1      -0.5301320615E-03       4    7    1        -0.2942943270E-01      0.6912258616E-01
          0                 4           1             4    7     1       0.2109444488E-04       4    7    1         0.1203665061E-02      0.2827027276E-02

    ------------------------------------------------
       NWT REQUIRED            4 OUTER ITERATIONS 
       AND A TOTAL OF          7 INNER ITERATIONS.
    ------------------------------------------------

 NO OUTPUT CONTROL FOR STRESS PERIOD   21   TIME STEP    9
 
 SOLVING FOR HEAD 
                                                   Max.-Head-Change                         Max.-Flux-Residual
  Residual-Control   Outer-Iter.   Inner-Iter.     Column Row Layer    Maximum-Head-Change  Column Row Layer    Maximum-Flux-Residual          L2-NORM 
          0                 1           2             4    7     1      -0.7917504053E-01       4    7    1        -0.4158494924E+01      0.9822514393E+01
          0                 2           2             4    7     1       0.7701437410E-02       4    7    1         0.4158403913E+00      0.9822308406E+00
          0                 3           2             4    7     1      -0.5244406571E-03       4    7    1        -0.2910892608E-01      0.6875500283E-01
          0                 4           1             4    7     1       0.2086797888E-04       4    7    1         0.1190556338E-02      0.2812020022E-02

    ------------------------------------------------
       NWT REQUIRED            4 OUTER ITERATIONS 
       AND A TOTAL OF          7 INNER ITERATIONS.
    ------------------------------------------------

 NO OUTPUT CONTROL FOR STRESS PERIOD   21   TIME STEP   10
 
 SOLVING FOR HEAD 
                                                   Max.-Head-Change                         Max.-Flux-Residual
  Residual-Control   Outer-Iter.   Inner-Iter.     Column Row Layer    Maximum-Head-Change  Column Row Layer    Maximum-Flux-Residual          L2-NORM 
          0                 1           2             4    7     1      -0.7833692749E-01       4    7    1        -0.4113845079E+01      0.9771033159E+01
          0                 2           2             4    7     1       0.7619899243E-02       4    7    1         0.4113756699E+00      0.9770762543E+00
          0                 3           2             4    7     1      -0.5188881716E-03       4    7    1        -0.2879639296E-01      0.6839438432E-01
          0                 4           1             4    7     1       0.2064704038E-04       4    7    1         0.1177773722E-02      0.2797255869E-02

    ------------------------------------------------
       NWT REQUIRED            4 OUTER ITERATIONS 
       AND A TOTAL OF          7 INNER ITERATIONS.
    ------------------------------------------------

 NO OUTPUT CONTROL FOR STRESS PERIOD   21   TIME STEP   11
 
 SOLVING FOR HEAD 
                                                   Max.-Head-Change                         Max.-Flux-Residual
  Residual-Control   Outer-Iter.   Inner-Iter.     Column Row Layer    Maximum-Head-Change  Column Row Layer    Maximum-Flux-Residual          L2-NORM 
          0                 1           2             4    7     1      -0.7751945549E-01       4    7    1        -0.4070299699E+01      0.9720590051E+01
          0                 2           2             4    7     1       0.7540401779E-02       4    7    1         0.4070213849E+00      0.9720420907E+00
          0                 3           2             4    7     1      -0.5134746526E-03       4    7    1        -0.2849159048E-01      0.6804208409E-01
          0                 4           1             4    7     1       0.2043163169E-04       4    7    1         0.1165307296E-02      0.2782874476E-02

    ------------------------------------------------
       NWT REQUIRED            4 OUTER ITERATIONS 
       AND A TOTAL OF          7 INNER ITERATIONS.
    ------------------------------------------------

 NO OUTPUT CONTROL FOR STRESS PERIOD   21   TIME STEP   12
 
 SOLVING FOR HEAD 
                                                   Max.-Head-Change                         Max.-Flux-Residual
  Residual-Control   Outer-Iter.   Inner-Iter.     Column Row Layer    Maximum-Head-Change  Column Row Layer    Maximum-Flux-Residual          L2-NORM 
          0                 1           2             4    7     1      -0.7672179918E-01       4    7    1        -0.4027823787E+01      0.9671168950E+01
          0                 2           2             4    7     1       0.7462815131E-02       4    7    1         0.4027740363E+00      0.9671013028E+00
          0                 3           2             4    7     1      -0.5081912546E-03       4    7    1        -0.2819427365E-01      0.6769634858E-01
          0                 4           1             4    7     1       0.2022140005E-04       4    7    1         0.1153147022E-02      0.2768728383E-02

    ------------------------------------------------
       NWT REQUIRED            4 OUTER ITERATIONS 
       AND A TOTAL OF          7 INNER ITERATIONS.
    ------------------------------------------------

 NO OUTPUT CONTROL FOR STRESS PERIOD   21   TIME STEP   13
 
 SOLVING FOR HEAD 
                                                   Max.-Head-Change                         Max.-Flux-Residual
  Residual-Control   Outer-Iter.   Inner-Iter.     Column Row Layer    Maximum-Head-Change  Column Row Layer    Maximum-Flux-Residual          L2-NORM 
          0                 1           2             4    7     1      -0.7594307407E-01       4    7    1        -0.3986368029E+01      0.9622699390E+01
          0                 2           2             4    7     1       0.7387069831E-02       4    7    1         0.3986286934E+00      0.9622555183E+00
          0                 3           2             4    7     1      -0.5030332472E-03       4    7    1        -0.2790409731E-01      0.6735720346E-01
          0                 4           1             4    7     1       0.2001615840E-04       4    7    1         0.1141278813E-02      0.2754856560E-02

    ------------------------------------------------
       NWT REQUIRED            4 OUTER ITERATIONS 
       AND A TOTAL OF          7 INNER ITERATIONS.
    ------------------------------------------------

 NO OUTPUT CONTROL FOR STRESS PERIOD   21   TIME STEP   14
 
 SOLVING FOR HEAD 
                                                   Max.-Head-Change                         Max.-Flux-Residual
  Residual-Control   Outer-Iter.   Inner-Iter.     Column Row Layer    Maximum-Head-Change  Column Row Layer    Maximum-Flux-Residual          L2-NORM 
          0                 1           2             4    7     1      -0.7518295835E-01       4    7    1        -0.3945915660E+01      0.9575147957E+01
          0                 2           2             4    7     1       0.7313134578E-02       4    7    1         0.3945836798E+00      0.9575013970E+00
          0                 3           2             4    7     1      -0.4979984988E-03       4    7    1        -0.2762094414E-01      0.6702452770E-01
          0                 4           1             4    7     1       0.1981582141E-04       4    7    1         0.1129697851E-02      0.2741275843E-02

    ------------------------------------------------
       NWT REQUIRED            4 OUTER ITERATIONS 
       AND A TOTAL OF          7 INNER ITERATIONS.
    ------------------------------------------------

 NO OUTPUT CONTROL FOR STRESS PERIOD   21   TIME STEP   15
 
 SOLVING FOR HEAD 
                                                   Max.-Head-Change                         Max.-Flux-Residual
  Residual-Control   Outer-Iter.   Inner-Iter.     Column Row Layer    Maximum-Head-Change  Column Row Layer    Maximum-Flux-Residual          L2-NORM 
          0                 1           2             4    7     1      -0.7444034562E-01       4    7    1        -0.3906406458E+01      0.9528476042E+01
          0                 2           2             4    7     1       0.7240901759E-02       4    7    1         0.3906329741E+00      0.9528351305E+00
          0                 3           2             4    7     1      -0.4930796807E-03       4    7    1        -0.2734439259E-01      0.6669795698E-01
          0                 4           1             4    7     1       0.1962009700E-04       4    7    1         0.1118386870E-02      0.2727903415E-02

    ------------------------------------------------
       NWT REQUIRED            4 OUTER ITERATIONS 
       AND A TOTAL OF          7 INNER ITERATIONS.
    ------------------------------------------------

 NO OUTPUT CONTROL FOR STRESS PERIOD   21   TIME STEP   16
 
 SOLVING FOR HEAD 
                                                   Max.-Head-Change                         Max.-Flux-Residual
  Residual-Control   Outer-Iter.   Inner-Iter.     Column Row Layer    Maximum-Head-Change  Column Row Layer    Maximum-Flux-Residual          L2-NORM 
          0                 1           2             4    7     1      -0.7371499464E-01       4    7    1        -0.3867827536E+01      0.9482655854E+01
          0                 2           2             4    7     1       0.7170349270E-02       4    7    1         0.3867752879E+00      0.9483224421E+00
          0                 3           2             4    7     1      -0.4882752880E-03       4    7    1        -0.2707435248E-01      0.6638214539E-01
          0                 4           1             4    7     1       0.1942892601E-04       4    7    1         0.1107342236E-02      0.2714998646E-02

    ------------------------------------------------
       NWT REQUIRED            4 OUTER ITERATIONS 
       AND A TOTAL OF          7 INNER ITERATIONS.
    ------------------------------------------------

 NO OUTPUT CONTROL FOR STRESS PERIOD   21   TIME STEP   17
 
 SOLVING FOR HEAD 
                                                   Max.-Head-Change                         Max.-Flux-Residual
  Residual-Control   Outer-Iter.   Inner-Iter.     Column Row Layer    Maximum-Head-Change  Column Row Layer    Maximum-Flux-Residual          L2-NORM 
          0                 1           2             4    7     1      -0.7300612338E-01       4    7    1        -0.3830136343E+01      0.9437609945E+01
          0                 2           2             4    7     1       0.7101396979E-02       4    7    1         0.3830063664E+00      0.9437501802E+00
          0                 3           2             4    7     1      -0.4835798643E-03       4    7    1        -0.2681052600E-01      0.6606213919E-01
          0                 4           1             4    7     1       0.1924209072E-04       4    7    1         0.1096551724E-02      0.2701948190E-02

    ------------------------------------------------
       NWT REQUIRED            4 OUTER ITERATIONS 
       AND A TOTAL OF          7 INNER ITERATIONS.
    ------------------------------------------------

 NO OUTPUT CONTROL FOR STRESS PERIOD   21   TIME STEP   18
 
 SOLVING FOR HEAD 
                                                   Max.-Head-Change                         Max.-Flux-Residual
  Residual-Control   Outer-Iter.   Inner-Iter.     Column Row Layer    Maximum-Head-Change  Column Row Layer    Maximum-Flux-Residual          L2-NORM 
          0                 1           2             4    7     1      -0.7231321396E-01       4    7    1        -0.3793305144E+01      0.9393315759E+01
          0                 2           2             4    7     1       0.7021298761E-02       4    7    1         0.3784982413E+00      0.9392677562E+00
          0                 3           2             4    7     1      -0.4781253986E-03       4    7    1        -0.2649495210E-01      0.6574841920E-01
          0                 4           1             4    7     1       0.1902505286E-04       4    7    1         0.1083644761E-02      0.2689087778E-02

    ------------------------------------------------
       NWT REQUIRED            4 OUTER ITERATIONS 
       AND A TOTAL OF          7 INNER ITERATIONS.
    ------------------------------------------------

 NO OUTPUT CONTROL FOR STRESS PERIOD   21   TIME STEP   19
 
 SOLVING FOR HEAD 
                                                   Max.-Head-Change                         Max.-Flux-Residual
  Residual-Control   Outer-Iter.   Inner-Iter.     Column Row Layer    Maximum-Head-Change  Column Row Layer    Maximum-Flux-Residual          L2-NORM 
          0                 1           2             4    7     1      -0.7166665126E-01       4    7    1        -0.3757973113E+01      0.9349840392E+01
          0                 2           2             4    7     1       0.6971111767E-02       4    7    1         0.3757906596E+00      0.9349744302E+00
          0                 3           2             4    7     1      -0.4747078372E-03       4    7    1        -0.2630542047E-01      0.6544792289E-01
          0                 4           1             4    7     1       0.1888906506E-04       4    7    1         0.1075892907E-02      0.2676800664E-02

    ------------------------------------------------
       NWT REQUIRED            4 OUTER ITERATIONS 
       AND A TOTAL OF          7 INNER ITERATIONS.
    ------------------------------------------------

 NO OUTPUT CONTROL FOR STRESS PERIOD   21   TIME STEP   20
 
 SOLVING FOR HEAD 
                                                   Max.-Head-Change                         Max.-Flux-Residual
  Residual-Control   Outer-Iter.   Inner-Iter.     Column Row Layer    Maximum-Head-Change  Column Row Layer    Maximum-Flux-Residual          L2-NORM 
          0                 1           2             4    7     1      -0.7102041590E-01       4    7    1        -0.3723697368E+01      0.9307153009E+01
          0                 2           2             4    7     1       0.6908252999E-02       4    7    1         0.3723632417E+00      0.9307061871E+00
          0                 3           2             4    7     1      -0.4704273656E-03       4    7    1        -0.2606549963E-01      0.6514917482E-01
          0                 4           1             4    7     1       0.1871874091E-04       4    7    1         0.1066080130E-02      0.2664582530E-02

    ------------------------------------------------
       NWT REQUIRED            4 OUTER ITERATIONS 
       AND A TOTAL OF          7 INNER ITERATIONS.
    ------------------------------------------------

 NO OUTPUT CONTROL FOR STRESS PERIOD   21   TIME STEP   21
 
 SOLVING FOR HEAD 
                                                   Max.-Head-Change                         Max.-Flux-Residual
  Residual-Control   Outer-Iter.   Inner-Iter.     Column Row Layer    Maximum-Head-Change  Column Row Layer    Maximum-Flux-Residual          L2-NORM 
          0                 1           2             4    7     1      -0.7038724709E-01       4    7    1        -0.3690122061E+01      0.9265188984E+01
          0                 2           2             4    7     1       0.6846665174E-02       4    7    1         0.3690058623E+00      0.9265102469E+00
          0                 3           2             4    7     1      -0.4662334413E-03       4    7    1        -0.2583048154E-01      0.6485549603E-01
          0                 4           1             4    7     1       0.1855186104E-04       4    7    1         0.1056467898E-02      0.2652584830E-02

    ------------------------------------------------
       NWT REQUIRED            4 OUTER ITERATIONS 
       AND A TOTAL OF          7 INNER ITERATIONS.
    ------------------------------------------------

 NO OUTPUT CONTROL FOR STRESS PERIOD   21   TIME STEP   22
 
 SOLVING FOR HEAD 
                                                   Max.-Head-Change                         Max.-Flux-Residual
  Residual-Control   Outer-Iter.   Inner-Iter.     Column Row Layer    Maximum-Head-Change  Column Row Layer    Maximum-Flux-Residual          L2-NORM 
          0                 1           2             4    7     1      -0.6976660910E-01       4    7    1        -0.3657217988E+01      0.9223941227E+01
          0                 2           2             4    7     1       0.6786296185E-02       4    7    1         0.3657156014E+00      0.9223858751E+00
          0                 3           2             4    7     1      -0.4621225157E-03       4    7    1        -0.2560016179E-01      0.6456683391E-01
          0                 4           1             4    7     1       0.1838828348E-04       4    7    1         0.1047047801E-02      0.2640775234E-02

    ------------------------------------------------
       NWT REQUIRED            4 OUTER ITERATIONS 
       AND A TOTAL OF          7 INNER ITERATIONS.
    ------------------------------------------------

 NO OUTPUT CONTROL FOR STRESS PERIOD   21   TIME STEP   23
 
 SOLVING FOR HEAD 
                                                   Max.-Head-Change                         Max.-Flux-Residual
  Residual-Control   Outer-Iter.   Inner-Iter.     Column Row Layer    Maximum-Head-Change  Column Row Layer    Maximum-Flux-Residual          L2-NORM 
          0                 1           2             4    7     1      -0.6915836321E-01       4    7    1        -0.3624978156E+01      0.9183392179E+01
          0                 2           2             4    7     1       0.6727132535E-02       4    7    1         0.3624917597E+00      0.9183313503E+00
          0                 3           2             4    7     1      -0.4580936702E-03       4    7    1        -0.2537449144E-01      0.6428303069E-01
          0                 4           1             4    7     1       0.1822797245E-04       4    7    1         0.1037817889E-02      0.2629159599E-02

    ------------------------------------------------
       NWT REQUIRED            4 OUTER ITERATIONS 
       AND A TOTAL OF          7 INNER ITERATIONS.
    ------------------------------------------------

 NO OUTPUT CONTROL FOR STRESS PERIOD   21   TIME STEP   24
 
 SOLVING FOR HEAD 
                                                   Max.-Head-Change                         Max.-Flux-Residual
  Residual-Control   Outer-Iter.   Inner-Iter.     Column Row Layer    Maximum-Head-Change  Column Row Layer    Maximum-Flux-Residual          L2-NORM 
          0                 1           2             4    7     1      -0.6856182651E-01       4    7    1        -0.3593365435E+01      0.9143517096E+01
          0                 2           2             4    7     1       0.6669107806E-02       4    7    1         0.3593306246E+00      0.9143441685E+00
          0                 3           2             4    7     1      -0.4541423812E-03       4    7    1        -0.2515321059E-01      0.6400394982E-01
          0                 4           1             4    7     1       0.1807074648E-04       4    7    1         0.1028767475E-02      0.2617755912E-02

    ------------------------------------------------
       NWT REQUIRED            4 OUTER ITERATIONS 
       AND A TOTAL OF          7 INNER ITERATIONS.
    ------------------------------------------------

 NO OUTPUT CONTROL FOR STRESS PERIOD   21   TIME STEP   25
 
 SOLVING FOR HEAD 
                                                   Max.-Head-Change                         Max.-Flux-Residual
  Residual-Control   Outer-Iter.   Inner-Iter.     Column Row Layer    Maximum-Head-Change  Column Row Layer    Maximum-Flux-Residual          L2-NORM 
          0                 1           2             4    7     1      -0.6797676092E-01       4    7    1        -0.3562367106E+01      0.9104297166E+01
          0                 2           2             4    7     1       0.6612198837E-02       4    7    1         0.3562309242E+00      0.9104224713E+00
          0                 3           2             4    7     1      -0.4502670721E-03       4    7    1        -0.2493623022E-01      0.6372945791E-01
          0                 4           1             4    7     1       0.1791654446E-04       4    7    1         0.1019892968E-02      0.2606526948E-02

    ------------------------------------------------
       NWT REQUIRED            4 OUTER ITERATIONS 
       AND A TOTAL OF          7 INNER ITERATIONS.
    ------------------------------------------------

 NO OUTPUT CONTROL FOR STRESS PERIOD   21   TIME STEP   26
 
 SOLVING FOR HEAD 
                                                   Max.-Head-Change                         Max.-Flux-Residual
  Residual-Control   Outer-Iter.   Inner-Iter.     Column Row Layer    Maximum-Head-Change  Column Row Layer    Maximum-Flux-Residual          L2-NORM 
          0                 1           2             4    7     1      -0.6740284226E-01       4    7    1        -0.3531965486E+01      0.9065730613E+01
          0                 2           2             4    7     1       0.6556374098E-02       4    7    1         0.3531908905E+00      0.9065660894E+00
          0                 3           2             4    7     1      -0.4464655955E-03       4    7    1        -0.2472342654E-01      0.6345950882E-01
          0                 4           1             4    7     1       0.1776528003E-04       4    7    1         0.1011189288E-02      0.2595480349E-02

    ------------------------------------------------
       NWT REQUIRED            4 OUTER ITERATIONS 
       AND A TOTAL OF          7 INNER ITERATIONS.
    ------------------------------------------------

 NO OUTPUT CONTROL FOR STRESS PERIOD   21   TIME STEP   27
 
 SOLVING FOR HEAD 
                                                   Max.-Head-Change                         Max.-Flux-Residual
  Residual-Control   Outer-Iter.   Inner-Iter.     Column Row Layer    Maximum-Head-Change  Column Row Layer    Maximum-Flux-Residual          L2-NORM 
          0                 1           2             4    7     1      -0.6683981418E-01       4    7    1        -0.3502147191E+01      0.9027781905E+01
          0                 2           2             4    7     1       0.6501608655E-02       4    7    1         0.3502091852E+00      0.9027714678E+00
          0                 3           2             4    7     1      -0.4427362547E-03       4    7    1        -0.2451470593E-01      0.6319390602E-01
          0                 4           1             4    7     1       0.1761688643E-04       4    7    1         0.1002652629E-02      0.2584619443E-02

    ------------------------------------------------
       NWT REQUIRED            4 OUTER ITERATIONS 
       AND A TOTAL OF          7 INNER ITERATIONS.
    ------------------------------------------------

 NO OUTPUT CONTROL FOR STRESS PERIOD   21   TIME STEP   28
 
 SOLVING FOR HEAD 
                                                   Max.-Head-Change                         Max.-Flux-Residual
  Residual-Control   Outer-Iter.   Inner-Iter.     Column Row Layer    Maximum-Head-Change  Column Row Layer    Maximum-Flux-Residual          L2-NORM 
          0                 1           2             4    7     1      -0.6628735467E-01       4    7    1        -0.3472894547E+01      0.8990447979E+01
          0                 2           2             4    7     1       0.6447871189E-02       4    7    1         0.3472840412E+00      0.8990383009E+00
          0                 3           2             4    7     1      -0.4390769146E-03       4    7    1        -0.2430994460E-01      0.6293260108E-01
          0                 4           1             4    7     1       0.1747127822E-04       4    7    1         0.9942778765E-03      0.2573934471E-02

    ------------------------------------------------
       NWT REQUIRED            4 OUTER ITERATIONS 
       AND A TOTAL OF          7 INNER ITERATIONS.
    ------------------------------------------------

 NO OUTPUT CONTROL FOR STRESS PERIOD   21   TIME STEP   29
 
 SOLVING FOR HEAD 
                                                   Max.-Head-Change                         Max.-Flux-Residual
  Residual-Control   Outer-Iter.   Inner-Iter.     Column Row Layer    Maximum-Head-Change  Column Row Layer    Maximum-Flux-Residual          L2-NORM 
          0                 1           2             4    7     1      -0.6574498509E-01       4    7    1        -0.3444181714E+01      0.8953711431E+01
          0                 2           2             4    7     1       0.6395115143E-02       4    7    1         0.3444128745E+00      0.8953648614E+00
          0                 3           2             4    7     1      -0.4354844068E-03       4    7    1        -0.2410896174E-01      0.6267546883E-01
          0                 4           1             4    7     1       0.1732832900E-04       4    7    1         0.9860576861E-03      0.2563419558E-02

    ------------------------------------------------
       NWT REQUIRED            4 OUTER ITERATIONS 
       AND A TOTAL OF          7 INNER ITERATIONS.
    ------------------------------------------------

 NO OUTPUT CONTROL FOR STRESS PERIOD   21   TIME STEP   30



 STREAM LISTING     PERIOD     21   STEP       30

 LAYER ROW COL. STREAM  RCH.  FLOW INTO     FLOW TO   FLOW OUT OF   OVRLND.     DIRECT     STREAM       STREAM     STREAM     STREAM   STREAMBED  STREAMBED
                SEG.NO.  NO.  STRM. RCH.    AQUIFER    STRM. RCH.    RUNOFF     PRECIP       ET          HEAD       DEPTH      WIDTH   CONDCTNC.   GRADIENT

   1    1    1     1     1    3.7001E+01  2.9351E-01   3.6707E+01  0.000E+00  0.000E+00  0.000E+00  1.09436E+03  1.308E+00  1.514E+01  6.812E-02  1.436E+00
   1    2    2     1     2    3.6707E+01  4.5449E-01   3.6253E+01  0.000E+00  0.000E+00  0.000E+00  1.08936E+03  1.305E+00  1.508E+01  1.056E-01  1.435E+00
   1    3    3     1     3    3.6253E+01  3.8754E-01   3.5865E+01  0.000E+00  0.000E+00  0.000E+00  1.08372E+03  1.302E+00  1.501E+01  9.008E-02  1.434E+00
   1    3    4     1     4    3.5865E+01  3.5682E-01   3.5508E+01  0.000E+00  0.000E+00  0.000E+00  1.07871E+03  1.299E+00  1.495E+01  8.300E-02  1.433E+00
   1    4    5     2     1    3.3508E+01  3.4594E-01   3.3162E+01  0.000E+00  0.000E+00  0.000E+00  1.07337E+03  1.435E+00  1.200E+01  7.800E-02  1.478E+00
   1    5    6     2     2    3.3162E+01  2.6563E-01   3.2897E+01  0.000E+00  0.000E+00  0.000E+00  1.06794E+03  1.427E+00  1.200E+01  6.000E-02  1.476E+00
   1    6    6     2     3    3.2897E+01  2.6522E-01   3.2631E+01  0.000E+00  0.000E+00  0.000E+00  1.06321E+03  1.420E+00  1.200E+01  6.000E-02  1.473E+00
   1    7    6     2     4    3.2631E+01  2.6480E-01   3.2367E+01  0.000E+00  0.000E+00  0.000E+00  1.05849E+03  1.413E+00  1.200E+01  6.000E-02  1.471E+00
   1    8    6     2     5    3.2367E+01  2.6439E-01   3.2102E+01  0.000E+00  0.000E+00  0.000E+00  1.05377E+03  1.406E+00  1.200E+01  6.000E-02  1.469E+00
   1    3    5     3     1    2.0000E+00  2.8252E-01   1.7175E+00  0.000E+00  0.000E+00  0.000E+00  1.07555E+03  1.909E+00  9.636E+00  7.227E-02  1.955E+00
   1    3    6     3     2    1.7175E+00  2.4905E-01   1.4684E+00  0.000E+00  0.000E+00  0.000E+00  1.07264E+03  1.727E+00  8.909E+00  6.682E-02  1.864E+00
   1    3    7     3     3    1.4684E+00  1.9718E-01   1.2712E+00  0.000E+00  0.000E+00  0.000E+00  1.06987E+03  1.555E+00  8.218E+00  5.547E-02  1.777E+00
   1    4    8     3     4    1.2712E+00  2.2567E-01   1.0456E+00  0.000E+00  0.000E+00  0.000E+00  1.06682E+03  1.364E+00  7.455E+00  6.709E-02  1.682E+00
   1    5    8     3     5    1.0456E+00  1.5790E-01   8.8768E-01  0.000E+00  0.000E+00  0.000E+00  1.06362E+03  1.164E+00  6.655E+00  4.991E-02  1.582E+00
   1    6    8     3     6    8.8768E-01  5.5980E-02   8.3170E-01  0.000E+00  0.000E+00  0.000E+00  1.06158E+03  1.036E+00  6.145E+00  1.844E-02  1.518E+00
   1    5   10     4     1    1.0000E+01  9.0919E-02   9.9091E+00  0.000E+00  0.000E+00  0.000E+00  1.07836E+03  6.368E-01  1.000E+01  2.500E-02  1.212E+00
   1    5    9     4     2    9.9091E+00  1.8158E-01   9.7275E+00  0.000E+00  0.000E+00  0.000E+00  1.07154E+03  6.315E-01  1.000E+01  5.000E-02  1.211E+00
   1    6    8     4     3    9.7275E+00  1.2689E-01   9.6006E+00  0.000E+00  0.000E+00  0.000E+00  1.06381E+03  6.256E-01  1.000E+01  3.500E-02  1.209E+00
   1    6    8     5     1    1.0432E+01  2.2686E-01   1.0205E+01  0.000E+00  0.000E+00  0.000E+00  1.05868E+03  6.790E-01  1.542E+01  6.166E-02  1.226E+00
   1    7    7     5     2    1.0205E+01  2.7894E-01   9.9265E+00  0.000E+00  0.000E+00  0.000E+00  1.05417E+03  6.732E-01  1.519E+01  7.594E-02  1.224E+00
   1    8    7     5     3    9.9265E+00  1.9221E-01   9.7343E+00  0.000E+00  0.000E+00  0.000E+00  1.04992E+03  6.676E-01  1.497E+01  5.241E-02  1.223E+00
   1    8    6     5     4    9.7343E+00  1.3577E-01   9.5985E+00  0.000E+00  0.000E+00  0.000E+00  1.04691E+03  6.637E-01  1.482E+01  3.706E-02  1.221E+00
   1    9    6     6     1    4.1701E+01  2.7939E-01   4.1421E+01  0.000E+00  0.000E+00  0.000E+00  1.04438E+03  1.656E+00  1.200E+01  6.000E-02  1.552E+00
   1   10    7     6     2    4.1421E+01  2.7899E-01   4.1142E+01  0.000E+00  0.000E+00  0.000E+00  1.03983E+03  1.650E+00  1.200E+01  6.000E-02  1.550E+00
   1   11    7     6     3    4.1142E+01  2.7859E-01   4.0864E+01  0.000E+00  0.000E+00  0.000E+00  1.03528E+03  1.643E+00  1.200E+01  6.000E-02  1.548E+00
   1   12    7     6     4    4.0864E+01  2.7818E-01   4.0586E+01  0.000E+00  0.000E+00  0.000E+00  1.03073E+03  1.636E+00  1.200E+01  6.000E-02  1.545E+00
   1   13    7     6     5    4.0586E+01  1.1358E-02   4.0574E+01  0.000E+00  0.000E+00  0.000E+00  1.02754E+03  1.633E+00  1.200E+01  2.400E-02  1.577E-01
   1   14    9     7     1    1.5000E+02  1.3332E+00   1.4867E+02  0.000E+00  0.000E+00  0.000E+00  1.03987E+03  2.288E+00  5.529E+01  5.593E-01  7.946E-01
   1   13    8     7     2    1.4867E+02  1.8331E+00   1.4683E+02  0.000E+00  0.000E+00  0.000E+00  1.03478E+03  2.279E+00  5.526E+01  6.148E-01  9.939E-01
   1   13    7     7     3    1.4683E+02  1.4638E+00   1.4537E+02  0.000E+00  0.000E+00  0.000E+00  1.02969E+03  2.271E+00  5.522E+01  5.585E-01  8.737E-01
   1   13    6     8     1    1.8594E+02  9.7873E-01   1.8497E+02  0.000E+00  0.000E+00  0.000E+00  1.02493E+03  3.050E+00  4.423E+01  4.507E-01  7.239E-01
   1   13    5     8     2    1.8497E+02  2.0796E-01   1.8476E+02  0.000E+00  0.000E+00  0.000E+00  1.01867E+03  3.046E+00  4.417E+01  4.501E-01  1.540E-01
   1   13    4     8     3    1.8476E+02 -2.3607E+00   1.8712E+02  0.000E+00  0.000E+00  0.000E+00  1.01243E+03  3.053E+00  4.427E+01  4.511E+00 -1.744E-01
   1   13    3     8     4    1.8712E+02 -3.6225E+00   1.9074E+02  0.000E+00  0.000E+00  0.000E+00  1.00620E+03  3.071E+00  4.454E+01  4.538E+00 -2.661E-01
   1   13    2     8     5    1.9074E+02 -2.5895E+00   1.9333E+02  0.000E+00  0.000E+00  0.000E+00  9.99965E+02  3.090E+00  4.481E+01  4.566E+00 -1.890E-01
   1   13    1     8     6    1.9333E+02 -2.0214E+00   1.9535E+02  0.000E+00  0.000E+00  0.000E+00  9.94979E+02  3.104E+00  4.501E+01  2.752E+00 -2.448E-01





UNSATURATED ZONE PACKAGE VOLUMETRIC BUDGET FOR  TIME STEP    30 STRESS PERIOD   21
  ------------------------------------------------------------------------------



     CUMULATIVE VOLUMES      L**3       RATES FOR THIS TIME STEP      L**3/T
     ------------------                 ------------------------

           IN:                                      IN:
           ---                                      ---
        INFILTRATION =  1000670565.4575          INFILTRATION =          52.8161

          OUT:                                     OUT:
          ----                                     ----
              UZF ET =   944334461.5929                UZF ET =          52.8575
        UZF RECHARGE =      797071.6500          UZF RECHARGE =       0.0000E+00

            IN - OUT =    55539032.2146              IN - OUT =      -4.1368E-02

          STORAGE:                                 STORAGE:
          --------                                 --------
      STORAGE CHANGE =    55540676.1385        STORAGE CHANGE =      -4.1366E-02

 PERCENT DISCREPANCY IS DIFFERENCE BETWEEN IN-OUT MINUS CHANGE IN STORAGE
 DIVIDED BY THE AVERAGE OF IN AND OUT TIMES 100

 PERCENT DISCREPANCY =          -0.00     PERCENT DISCREPANCY =           0.00






1
  VOLUMETRIC BUDGET FOR ENTIRE MODEL AT END OF TIME STEP   30, STRESS PERIOD  21
  ------------------------------------------------------------------------------

     CUMULATIVE VOLUMES      L**3       RATES FOR THIS TIME STEP      L**3/T
     ------------------                 ------------------------

           IN:                                      IN:
           ---                                      ---
               AG WELLS  =   768763008.0000                 AG WELLS  =          48.4086
      DIVERSION SEGMENTS =           0.0000        DIVERSION SEGMENTS =           0.0000
           GW IRRIGATION =           0.0000             GW IRRIGATION =           0.0000
           SW IRRIGATION =           0.0000             SW IRRIGATION =           0.0000
        SYSTEM LOSSES GW =           0.0000          SYSTEM LOSSES GW =           0.0000
        SYSTEM LOSSES SW =           0.0000          SYSTEM LOSSES SW =           0.0000

                TOTAL IN =   768763008.0000                  TOTAL IN =          48.4086

          OUT:                                     OUT:
          ----                                     ----
               AG WELLS  =           0.0000                 AG WELLS  =           0.0000
      DIVERSION SEGMENTS =           0.0000        DIVERSION SEGMENTS =           0.0000
           GW IRRIGATION =   768763008.0000             GW IRRIGATION =          48.4086
           SW IRRIGATION =           0.0000             SW IRRIGATION =           0.0000
        SYSTEM LOSSES GW =           0.0000          SYSTEM LOSSES GW =           0.0000
        SYSTEM LOSSES SW =           0.0000          SYSTEM LOSSES SW =           0.0000

               TOTAL OUT =   768763008.0000                 TOTAL OUT =          48.4086

                IN - OUT =           0.0000                  IN - OUT =           0.0000

     PERCENT DISCREPANCY =           0.00         PERCENT DISCREPANCY =           0.00



1
  VOLUMETRIC BUDGET FOR ENTIRE MODEL AT END OF TIME STEP   30, STRESS PERIOD  21
  ------------------------------------------------------------------------------

     CUMULATIVE VOLUMES      L**3       RATES FOR THIS TIME STEP      L**3/T
     ------------------                 ------------------------

           IN:                                      IN:
           ---                                      ---
             STORAGE     =   924880704.0000               STORAGE     =          47.0014
       CONSTANT HEAD     =           0.0000         CONSTANT HEAD     =           0.0000
     HEAD DEP BOUNDS     =    15037940.0000       HEAD DEP BOUNDS     =           0.2856
      STREAM LEAKAGE     =   661615296.0000        STREAM LEAKAGE     =          12.2431
        UZF RECHARGE     =      797071.5625          UZF RECHARGE     =           0.0000
               GW ET     =           0.0000                 GW ET     =           0.0000
     SURFACE LEAKAGE     =           0.0000       SURFACE LEAKAGE     =           0.0000
           AG WELLS      =           0.0000             AG WELLS      =           0.0000

                TOTAL IN =  1602331008.0000                  TOTAL IN =          59.5301

          OUT:                                     OUT:
          ----                                     ----
             STORAGE     =   255663904.0000               STORAGE     =           0.2344
       CONSTANT HEAD     =           0.0000         CONSTANT HEAD     =           0.0000
     HEAD DEP BOUNDS     =    15529625.0000       HEAD DEP BOUNDS     =           0.2931
      STREAM LEAKAGE     =   545058240.0000        STREAM LEAKAGE     =          10.5941
        UZF RECHARGE     =           0.0000          UZF RECHARGE     =           0.0000
               GW ET     =    17319432.0000                 GW ET     =           0.0000
     SURFACE LEAKAGE     =           0.0000       SURFACE LEAKAGE     =           0.0000
           AG WELLS      =   768763008.0000             AG WELLS      =          48.4086

               TOTAL OUT =  1602334208.0000                 TOTAL OUT =          59.5303

                IN - OUT =       -3200.0000                  IN - OUT =      -1.6785E-04

     PERCENT DISCREPANCY =          -0.00         PERCENT DISCREPANCY =          -0.00






         TIME SUMMARY AT END OF TIME STEP   30 IN STRESS PERIOD   21
                    SECONDS     MINUTES      HOURS       DAYS        YEARS
                    -----------------------------------------------------------
   TIME STEP LENGTH  87667.      1461.1      24.352      1.0147     2.77799E-03
 STRESS PERIOD TIME 2.63000E+06  43833.      730.56      30.440     8.33397E-02
         TOTAL TIME 5.26866E+07 8.78110E+05  14635.      609.80      1.6695    
1
1
                            STRESS PERIOD NO.   22, LENGTH =   2630000.    
                            -----------------------------------------------

                              NUMBER OF TIME STEPS =    30

                               MULTIPLIER FOR DELT =     1.000

                            INITIAL TIME STEP SIZE =   87666.66    

 REUSING NON-PARAMETER GHB CELLS FROM LAST STRESS PERIOD

      2 GHB CELLS

 REUSING STREAM SEGMENT DATA FROM LAST STRESS PERIOD



            AREAL INFILTRATION RATE
 READING ON UNIT   19 WITH FORMAT: (10F4.0)            

            1           2           3           4           5           6           7           8           9          10
 ........................................................................................................................
   1   1.2000E-09   0.000       0.000       0.000       0.000       0.000       0.000       0.000       0.000       0.000    
   2   2.1000E-09  2.0000E-09  8.0000E-10  8.5000E-09   0.000       0.000       0.000       0.000       0.000       0.000    
   3   5.0000E-10  1.1000E-09  8.8000E-09  5.5000E-09   0.000       0.000       0.000       0.000       0.000       0.000    
   4   8.5000E-09  1.1000E-09  1.1000E-09  1.1000E-09  2.0000E-09   0.000       0.000       0.000       0.000       0.000    
   5   8.5000E-09  1.1000E-09  1.1000E-09  1.1000E-09  1.1000E-09   0.000       0.000       0.000       0.000       0.000    
   6   8.5000E-09  5.2000E-09  2.1000E-09  1.1000E-09  1.5000E-09   0.000       0.000       0.000       0.000       0.000    
   7   8.5000E-09  5.2000E-09  2.1000E-09  1.2000E-09  2.0000E-09   0.000       0.000       0.000       0.000       0.000    
   8   5.0000E-10  5.2000E-09  2.1000E-09  1.2000E-09  5.0000E-09   0.000       0.000       0.000       0.000       0.000    
   9   5.0000E-10  5.2000E-09  2.1000E-09  1.2000E-09  5.0000E-09   0.000       0.000       0.000       0.000       0.000    
  10   5.0000E-10  5.2000E-09  2.1000E-09  1.2000E-09  5.8000E-09   0.000       0.000       0.000       0.000       0.000    
  11   1.0000E-10  1.1000E-09  1.1000E-09  1.2000E-09  5.0000E-09   0.000       0.000       0.000       0.000       0.000    
  12   1.1000E-09  1.1000E-09  1.1000E-09  1.1000E-09  2.0000E-09   0.000       0.000       0.000       0.000       0.000    
  13   1.1000E-09  2.2000E-09  2.2000E-09  2.1000E-09  1.0000E-09   0.000       0.000       0.000       0.000       0.000    
  14   2.0000E-10  5.5000E-09  5.5000E-09  5.2000E-09  1.0000E-09   0.000       0.000       0.000       0.000       0.000    
  15    0.000      8.8000E-09  8.8000E-09   0.000       0.000       0.000       0.000       0.000       0.000       0.000    

                  ET RATE =  7.500000E-08

 USING ET EXTINCTION DEPTH FROM PREVIOUS STRESS PERIOD. CURRENT PERIOD IS:      22

 USING EXTINCTION WATER CONTENT FROM PREVIOUS STRESS PERIOD. CURRENT PERIOD IS:      22

 USING AIR ENTRY PRESSURE FROM PREVIOUS STRESS PERIOD. CURRENT PERIOD IS:      22

 USING ROOT PRESSURE HEAD FROM PREVIOUS STRESS PERIOD. CURRENT PERIOD IS:      22

 USING ROOT ACTIVITY FROM PREVIOUS STRESS PERIOD. CURRENT PERIOD IS:      22

 PROCESSING AG STRESS PERIOD DATA

 READING AG STRESS PERIOD DATA

 READING IRRIGATION WELL

 END PROCESSING AG STRESS PERIOD DATA OPTIONS
 
 SOLVING FOR HEAD 
                                                   Max.-Head-Change                         Max.-Flux-Residual
  Residual-Control   Outer-Iter.   Inner-Iter.     Column Row Layer    Maximum-Head-Change  Column Row Layer    Maximum-Flux-Residual          L2-NORM 
          0                 1           2             5    8     1       0.6999540698E-01       5    8    1         0.3811485347E+01      0.1010521259E+02
          0                 2           2             5    8     1      -0.6808528540E-02       5    8    1        -0.3811405111E+00      0.1010444998E+01
          0                 3           2             5    8     1       0.4636366856E-03       5    8    1         0.2667992321E-01      0.7072656627E-01
          0                 4           1             5    8     1      -0.1844853275E-04       5    8    1        -0.1091210026E-02      0.2892418547E-02

    ------------------------------------------------
       NWT REQUIRED            4 OUTER ITERATIONS 
       AND A TOTAL OF          7 INNER ITERATIONS.
    ------------------------------------------------

 NO OUTPUT CONTROL FOR STRESS PERIOD   22   TIME STEP    1
 
 SOLVING FOR HEAD 
                                                   Max.-Head-Change                         Max.-Flux-Residual
  Residual-Control   Outer-Iter.   Inner-Iter.     Column Row Layer    Maximum-Head-Change  Column Row Layer    Maximum-Flux-Residual          L2-NORM 
          0                 1           2             5    8     1       0.6683631371E-01       5    8    1         0.3636555667E+01      0.9788721434E+01
          0                 2           2             5    8     1      -0.6501242464E-02       5    8    1        -0.3636480672E+00      0.9787876653E+00
          0                 3           2             5    8     1       0.4427115695E-03       5    8    1         0.2545544666E-01      0.6850943905E-01
          0                 4           1             5    8     1      -0.1761590324E-04       5    8    1        -0.1041128897E-02      0.2801568448E-02

    ------------------------------------------------
       NWT REQUIRED            4 OUTER ITERATIONS 
       AND A TOTAL OF          7 INNER ITERATIONS.
    ------------------------------------------------

 NO OUTPUT CONTROL FOR STRESS PERIOD   22   TIME STEP    2
 
 SOLVING FOR HEAD 
                                                   Max.-Head-Change                         Max.-Flux-Residual
  Residual-Control   Outer-Iter.   Inner-Iter.     Column Row Layer    Maximum-Head-Change  Column Row Layer    Maximum-Flux-Residual          L2-NORM 
          0                 1           2             5    8     1       0.6387200400E-01       5    8    1         0.3472486855E+01      0.9483014146E+01
          0                 2           2             5    8     1      -0.6212903168E-02       5    8    1        -0.3472416859E+00      0.9482258551E+00
          0                 3           2             5    8     1       0.4230766619E-03       5    8    1         0.2430699475E-01      0.6637087750E-01
          0                 4           1             5    8     1      -0.1683461223E-04       5    8    1        -0.9941571600E-03      0.2714230743E-02

    ------------------------------------------------
       NWT REQUIRED            4 OUTER ITERATIONS 
       AND A TOTAL OF          7 INNER ITERATIONS.
    ------------------------------------------------

 NO OUTPUT CONTROL FOR STRESS PERIOD   22   TIME STEP    3
 
 SOLVING FOR HEAD 
                                                   Max.-Head-Change                         Max.-Flux-Residual
  Residual-Control   Outer-Iter.   Inner-Iter.     Column Row Layer    Maximum-Head-Change  Column Row Layer    Maximum-Flux-Residual          L2-NORM 
          0                 1           2             5    6     1       0.6113706547E-01       5    8    1         0.3318514613E+01      0.9193749884E+01
          0                 2           2             5    6     1      -0.5946869742E-02       5    8    1        -0.3318449241E+00      0.9193073207E+00
          0                 3           2             5    6     1       0.4049607570E-03       5    8    1         0.2322921657E-01      0.6434708483E-01
          0                 4           1             5    6     1      -0.1611372821E-04       5    8    1        -0.9500760073E-03      0.2631487997E-02

    ------------------------------------------------
       NWT REQUIRED            4 OUTER ITERATIONS 
       AND A TOTAL OF          7 INNER ITERATIONS.
    ------------------------------------------------

 NO OUTPUT CONTROL FOR STRESS PERIOD   22   TIME STEP    4
 
 SOLVING FOR HEAD 
                                                   Max.-Head-Change                         Max.-Flux-Residual
  Residual-Control   Outer-Iter.   Inner-Iter.     Column Row Layer    Maximum-Head-Change  Column Row Layer    Maximum-Flux-Residual          L2-NORM 
          0                 1           2             5    6     1       0.5863388176E-01       5    6    1         0.3177128922E+01      0.8919753778E+01
          0                 2           2             5    6     1      -0.5703385016E-02       5    6    1        -0.3177064778E+00      0.8919147868E+00
          0                 3           2             5    6     1       0.3883802834E-03       5    6    1         0.2223952376E-01      0.6243011002E-01
          0                 4           1             5    6     1      -0.1545397637E-04       5    6    1        -0.9095974958E-03      0.2553128100E-02

    ------------------------------------------------
       NWT REQUIRED            4 OUTER ITERATIONS 
       AND A TOTAL OF          7 INNER ITERATIONS.
    ------------------------------------------------

 NO OUTPUT CONTROL FOR STRESS PERIOD   22   TIME STEP    5
 
 SOLVING FOR HEAD 
                                                   Max.-Head-Change                         Max.-Flux-Residual
  Residual-Control   Outer-Iter.   Inner-Iter.     Column Row Layer    Maximum-Head-Change  Column Row Layer    Maximum-Flux-Residual          L2-NORM 
          0                 1           2             5    7     1       0.5649605415E-01       5    6    1         0.3047041953E+01      0.8659923715E+01
          0                 2           2             5    7     1      -0.5495477867E-02       5    6    1        -0.3046982139E+00      0.8659380432E+00
          0                 3           2             5    7     1       0.3742221354E-03       5    6    1         0.2132894078E-01      0.6061216097E-01
          0                 4           1             5    7     1      -0.1489064885E-04       5    6    1        -0.8723546282E-03      0.2478706375E-02

    ------------------------------------------------
       NWT REQUIRED            4 OUTER ITERATIONS 
       AND A TOTAL OF          7 INNER ITERATIONS.
    ------------------------------------------------

 NO OUTPUT CONTROL FOR STRESS PERIOD   22   TIME STEP    6
 
 SOLVING FOR HEAD 
                                                   Max.-Head-Change                         Max.-Flux-Residual
  Residual-Control   Outer-Iter.   Inner-Iter.     Column Row Layer    Maximum-Head-Change  Column Row Layer    Maximum-Flux-Residual          L2-NORM 
          0                 1           2             5    7     1       0.5521596210E-01       5    7    1         0.2935729462E+01      0.8413261118E+01
          0                 2           2             5    7     1      -0.5370966269E-02       5    7    1        -0.2935702125E+00      0.8412773869E+00
          0                 3           2             5    7     1       0.3657432943E-03       5    7    1         0.2054994963E-01      0.5888628158E-01
          0                 4           1             5    7     1      -0.1455326822E-04       5    7    1        -0.8404939963E-03      0.2408241801E-02

    ------------------------------------------------
       NWT REQUIRED            4 OUTER ITERATIONS 
       AND A TOTAL OF          7 INNER ITERATIONS.
    ------------------------------------------------

 NO OUTPUT CONTROL FOR STRESS PERIOD   22   TIME STEP    7
 
 SOLVING FOR HEAD 
                                                   Max.-Head-Change                         Max.-Flux-Residual
  Residual-Control   Outer-Iter.   Inner-Iter.     Column Row Layer    Maximum-Head-Change  Column Row Layer    Maximum-Flux-Residual          L2-NORM 
          0                 1           2             5    7     1       0.5396144620E-01       5    7    1         0.2869235919E+01      0.8178857957E+01
          0                 2           2             5    7     1      -0.5248941730E-02       5    7    1        -0.2869212398E+00      0.8178419652E+00
          0                 3           2             5    7     1       0.3574338203E-03       5    7    1         0.2008451773E-01      0.5724610957E-01
          0                 4           1             5    7     1      -0.1422262659E-04       5    7    1        -0.8214578193E-03      0.2341136959E-02

    ------------------------------------------------
       NWT REQUIRED            4 OUTER ITERATIONS 
       AND A TOTAL OF          7 INNER ITERATIONS.
    ------------------------------------------------

 NO OUTPUT CONTROL FOR STRESS PERIOD   22   TIME STEP    8
 
 SOLVING FOR HEAD 
                                                   Max.-Head-Change                         Max.-Flux-Residual
  Residual-Control   Outer-Iter.   Inner-Iter.     Column Row Layer    Maximum-Head-Change  Column Row Layer    Maximum-Flux-Residual          L2-NORM 
          0                 1           2             5    7     1       0.5273279736E-01       5    7    1         0.2804050411E+01      0.7955854369E+01
          0                 2           2             5    7     1      -0.5129432648E-02       5    7    1        -0.2804030228E+00      0.7955455830E+00
          0                 3           2             5    7     1       0.3492956465E-03       5    7    1         0.1962823917E-01      0.5568566790E-01
          0                 4           1             5    7     1      -0.1389880166E-04       5    7    1        -0.8027960237E-03      0.2277384991E-02

    ------------------------------------------------
       NWT REQUIRED            4 OUTER ITERATIONS 
       AND A TOTAL OF          7 INNER ITERATIONS.
    ------------------------------------------------

 NO OUTPUT CONTROL FOR STRESS PERIOD   22   TIME STEP    9
 
 SOLVING FOR HEAD 
                                                   Max.-Head-Change                         Max.-Flux-Residual
  Residual-Control   Outer-Iter.   Inner-Iter.     Column Row Layer    Maximum-Head-Change  Column Row Layer    Maximum-Flux-Residual          L2-NORM 
          0                 1           2             4    7     1       0.5200692222E-01       5    7    1         0.2740228830E+01      0.7743495676E+01
          0                 2           2             4    7     1      -0.5058846549E-02       5    7    1        -0.2740211570E+00      0.7743141864E+00
          0                 3           2             4    7     1       0.3444887819E-03       5    7    1         0.1918150562E-01      0.5419976553E-01
          0                 4           1             4    7     1      -0.1370753039E-04       5    7    1        -0.7845245921E-03      0.2216575415E-02

    ------------------------------------------------
       NWT REQUIRED            4 OUTER ITERATIONS 
       AND A TOTAL OF          7 INNER ITERATIONS.
    ------------------------------------------------

 NO OUTPUT CONTROL FOR STRESS PERIOD   22   TIME STEP   10
 
 SOLVING FOR HEAD 
                                                   Max.-Head-Change                         Max.-Flux-Residual
  Residual-Control   Outer-Iter.   Inner-Iter.     Column Row Layer    Maximum-Head-Change  Column Row Layer    Maximum-Flux-Residual          L2-NORM 
          0                 1           2             4    7     1       0.5154773120E-01       4    7    1         0.2701958506E+01      0.7541061410E+01
          0                 2           2             4    7     1      -0.5014183908E-02       4    7    1        -0.2701956240E+00      0.7540742706E+00
          0                 3           2             4    7     1       0.3414473816E-03       4    7    1         0.1891370402E-01      0.5278319617E-01
          0                 4           1             4    7     1      -0.1358651021E-04       4    7    1        -0.7735715567E-03      0.2158721582E-02

    ------------------------------------------------
       NWT REQUIRED            4 OUTER ITERATIONS 
       AND A TOTAL OF          7 INNER ITERATIONS.
    ------------------------------------------------

 NO OUTPUT CONTROL FOR STRESS PERIOD   22   TIME STEP   11
 
 SOLVING FOR HEAD 
                                                   Max.-Head-Change                         Max.-Flux-Residual
  Residual-Control   Outer-Iter.   Inner-Iter.     Column Row Layer    Maximum-Head-Change  Column Row Layer    Maximum-Flux-Residual          L2-NORM 
          0                 1           2             4    7     1       0.5106345025E-01       4    7    1         0.2678099727E+01      0.7347904146E+01
          0                 2           2             4    7     1      -0.4967080236E-02       4    7    1        -0.2678099876E+00      0.7347616215E+00
          0                 3           2             4    7     1       0.3382397605E-03       4    7    1         0.1874670710E-01      0.5143145306E-01
          0                 4           1             4    7     1      -0.1345887653E-04       4    7    1        -0.7667413970E-03      0.2103418723E-02

    ------------------------------------------------
       NWT REQUIRED            4 OUTER ITERATIONS 
       AND A TOTAL OF          7 INNER ITERATIONS.
    ------------------------------------------------

 NO OUTPUT CONTROL FOR STRESS PERIOD   22   TIME STEP   12
 
 SOLVING FOR HEAD 
                                                   Max.-Head-Change                         Max.-Flux-Residual
  Residual-Control   Outer-Iter.   Inner-Iter.     Column Row Layer    Maximum-Head-Change  Column Row Layer    Maximum-Flux-Residual          L2-NORM 
          0                 1           2             4    7     1       0.5055692630E-01       4    7    1         0.2652954314E+01      0.7163421638E+01
          0                 2           2             4    7     1      -0.4917812505E-02       4    7    1        -0.2652956600E+00      0.7163161483E+00
          0                 3           2             4    7     1       0.3348847785E-03       4    7    1         0.1857070206E-01      0.5014047785E-01
          0                 4           1             4    7     1      -0.1332537848E-04       4    7    1        -0.7595427762E-03      0.2050638909E-02

    ------------------------------------------------
       NWT REQUIRED            4 OUTER ITERATIONS 
       AND A TOTAL OF          7 INNER ITERATIONS.
    ------------------------------------------------

 NO OUTPUT CONTROL FOR STRESS PERIOD   22   TIME STEP   13
 
 SOLVING FOR HEAD 
                                                   Max.-Head-Change                         Max.-Flux-Residual
  Residual-Control   Outer-Iter.   Inner-Iter.     Column Row Layer    Maximum-Head-Change  Column Row Layer    Maximum-Flux-Residual          L2-NORM 
          0                 1           2             4    7     1       0.5003029024E-01       4    7    1         0.2626640530E+01      0.6987061492E+01
          0                 2           2             4    7     1      -0.4866588033E-02       4    7    1        -0.2626644700E+00      0.6986824235E+00
          0                 3           2             4    7     1       0.3313965540E-03       4    7    1         0.1838651689E-01      0.4890607979E-01
          0                 4           1             4    7     1      -0.1318657903E-04       4    7    1        -0.7520096010E-03      0.2000022663E-02

    ------------------------------------------------
       NWT REQUIRED            4 OUTER ITERATIONS 
       AND A TOTAL OF          7 INNER ITERATIONS.
    ------------------------------------------------

 NO OUTPUT CONTROL FOR STRESS PERIOD   22   TIME STEP   14
 
 SOLVING FOR HEAD 
                                                   Max.-Head-Change                         Max.-Flux-Residual
  Residual-Control   Outer-Iter.   Inner-Iter.     Column Row Layer    Maximum-Head-Change  Column Row Layer    Maximum-Flux-Residual          L2-NORM 
          0                 1           2             4    7     1       0.4948580018E-01       4    7    1         0.2599283712E+01      0.6818300329E+01
          0                 2           2             4    7     1      -0.4813626506E-02       4    7    1        -0.2599289534E+00      0.6818087730E+00
          0                 3           2             4    7     1       0.3277900460E-03       4    7    1         0.1819502909E-01      0.4772525792E-01
          0                 4           1             4    7     1      -0.1304307294E-04       4    7    1        -0.7441777509E-03      0.1951862749E-02

    ------------------------------------------------
       NWT REQUIRED            4 OUTER ITERATIONS 
       AND A TOTAL OF          7 INNER ITERATIONS.
    ------------------------------------------------

 NO OUTPUT CONTROL FOR STRESS PERIOD   22   TIME STEP   15
 
 SOLVING FOR HEAD 
                                                   Max.-Head-Change                         Max.-Flux-Residual
  Residual-Control   Outer-Iter.   Inner-Iter.     Column Row Layer    Maximum-Head-Change  Column Row Layer    Maximum-Flux-Residual          L2-NORM 
          0                 1           2             4    7     1       0.4892556710E-01       4    7    1         0.2571000816E+01      0.6656671593E+01
          0                 2           2             4    7     1      -0.4759133299E-02       4    7    1        -0.2571008083E+00      0.6656478896E+00
          0                 3           2             4    7     1       0.3240792392E-03       4    7    1         0.1799705749E-01      0.4659414002E-01
          0                 4           1             4    7     1      -0.1289541661E-04       4    7    1        -0.7360807117E-03      0.1905632450E-02

    ------------------------------------------------
       NWT REQUIRED            4 OUTER ITERATIONS 
       AND A TOTAL OF          7 INNER ITERATIONS.
    ------------------------------------------------

 NO OUTPUT CONTROL FOR STRESS PERIOD   22   TIME STEP   16
 
 SOLVING FOR HEAD 
                                                   Max.-Head-Change                         Max.-Flux-Residual
  Residual-Control   Outer-Iter.   Inner-Iter.     Column Row Layer    Maximum-Head-Change  Column Row Layer    Maximum-Flux-Residual          L2-NORM 
          0                 1           2             4    7     1       0.4835156748E-01       4    7    1         0.2541901416E+01      0.6501756244E+01
          0                 2           2             4    7     1      -0.4703300698E-02       4    7    1        -0.2541909939E+00      0.6501581473E+00
          0                 3           2             4    7     1       0.3202772275E-03       4    7    1         0.1779336920E-01      0.4550997429E-01
          0                 4           1             4    7     1      -0.1274413100E-04       4    7    1        -0.7277498564E-03      0.1861243033E-02

    ------------------------------------------------
       NWT REQUIRED            4 OUTER ITERATIONS 
       AND A TOTAL OF          7 INNER ITERATIONS.
    ------------------------------------------------

 NO OUTPUT CONTROL FOR STRESS PERIOD   22   TIME STEP   17
 
 SOLVING FOR HEAD 
                                                   Max.-Head-Change                         Max.-Flux-Residual
  Residual-Control   Outer-Iter.   Inner-Iter.     Column Row Layer    Maximum-Head-Change  Column Row Layer    Maximum-Flux-Residual          L2-NORM 
          0                 1           2             4    7     1       0.4776549977E-01       4    7    1         0.2512080498E+01      0.6353128985E+01
          0                 2           2             4    7     1      -0.4646293945E-02       4    7    1        -0.2512090105E+00      0.6352969960E+00
          0                 3           2             4    7     1       0.3163952624E-03       4    7    1         0.1758462923E-01      0.4446981264E-01
          0                 4           1             4    7     1      -0.1258966419E-04       4    7    1        -0.7192123830E-03      0.1818737354E-02

    ------------------------------------------------
       NWT REQUIRED            4 OUTER ITERATIONS 
       AND A TOTAL OF          7 INNER ITERATIONS.
    ------------------------------------------------

 NO OUTPUT CONTROL FOR STRESS PERIOD   22   TIME STEP   18
 
 SOLVING FOR HEAD 
                                                   Max.-Head-Change                         Max.-Flux-Residual
  Residual-Control   Outer-Iter.   Inner-Iter.     Column Row Layer    Maximum-Head-Change  Column Row Layer    Maximum-Flux-Residual          L2-NORM 
          0                 1           2             4    7     1       0.4716908935E-01       4    7    1         0.2481633731E+01      0.6210425733E+01
          0                 2           2             4    7     1      -0.4588280897E-02       4    7    1        -0.2481644270E+00      0.6210280645E+00
          0                 3           2             4    7     1       0.3124447751E-03       4    7    1         0.1737150743E-01      0.4347105133E-01
          0                 4           1             4    7     1      -0.1243247023E-04       4    7    1        -0.7104956844E-03      0.1777916351E-02

    ------------------------------------------------
       NWT REQUIRED            4 OUTER ITERATIONS 
       AND A TOTAL OF          7 INNER ITERATIONS.
    ------------------------------------------------

 NO OUTPUT CONTROL FOR STRESS PERIOD   22   TIME STEP   19
 
 SOLVING FOR HEAD 
                                                   Max.-Head-Change                         Max.-Flux-Residual
  Residual-Control   Outer-Iter.   Inner-Iter.     Column Row Layer    Maximum-Head-Change  Column Row Layer    Maximum-Flux-Residual          L2-NORM 
          0                 1           2             4    7     1       0.4656406590E-01       4    7    1         0.2450657710E+01      0.6073300947E+01
          0                 2           2             4    7     1      -0.4529429827E-02       4    7    1        -0.2450669041E+00      0.6073168401E+00
          0                 3           2             4    7     1       0.3084372239E-03       4    7    1         0.1715467999E-01      0.4251136018E-01
          0                 4           1             4    7     1      -0.1227300618E-04       4    7    1        -0.7016274390E-03      0.1738683559E-02

    ------------------------------------------------
       NWT REQUIRED            4 OUTER ITERATIONS 
       AND A TOTAL OF          7 INNER ITERATIONS.
    ------------------------------------------------

 NO OUTPUT CONTROL FOR STRESS PERIOD   22   TIME STEP   20
 
 SOLVING FOR HEAD 
                                                   Max.-Head-Change                         Max.-Flux-Residual
  Residual-Control   Outer-Iter.   Inner-Iter.     Column Row Layer    Maximum-Head-Change  Column Row Layer    Maximum-Flux-Residual          L2-NORM 
          0                 1           2             4    7     1       0.4595177655E-01       4    7    1         0.2419227608E+01      0.5941447353E+01
          0                 2           2             4    7     1      -0.4469871795E-02       4    7    1        -0.2419239606E+00      0.5941326629E+00
          0                 3           2             4    7     1       0.3043815325E-03       4    7    1         0.1693467322E-01      0.4158851970E-01
          0                 4           1             4    7     1      -0.1211162687E-04       4    7    1        -0.6926291508E-03      0.1700873811E-02

    ------------------------------------------------
       NWT REQUIRED            4 OUTER ITERATIONS 
       AND A TOTAL OF          7 INNER ITERATIONS.
    ------------------------------------------------

 NO OUTPUT CONTROL FOR STRESS PERIOD   22   TIME STEP   21
 
 SOLVING FOR HEAD 
                                                   Max.-Head-Change                         Max.-Flux-Residual
  Residual-Control   Outer-Iter.   Inner-Iter.     Column Row Layer    Maximum-Head-Change  Column Row Layer    Maximum-Flux-Residual          L2-NORM 
          0                 1           2             4    7     1       0.4533346552E-01       4    7    1         0.2387413272E+01      0.5814546004E+01
          0                 2           2             4    7     1      -0.4409727848E-02       4    7    1        -0.2387425825E+00      0.5814435208E+00
          0                 3           2             4    7     1       0.3002859441E-03       4    7    1         0.1671197612E-01      0.4070036717E-01
          0                 4           1             4    7     1      -0.1194865938E-04       4    7    1        -0.6835208235E-03      0.1664612355E-02

    ------------------------------------------------
       NWT REQUIRED            4 OUTER ITERATIONS 
       AND A TOTAL OF          7 INNER ITERATIONS.
    ------------------------------------------------

 NO OUTPUT CONTROL FOR STRESS PERIOD   22   TIME STEP   22
 
 SOLVING FOR HEAD 
                                                   Max.-Head-Change                         Max.-Flux-Residual
  Residual-Control   Outer-Iter.   Inner-Iter.     Column Row Layer    Maximum-Head-Change  Column Row Layer    Maximum-Flux-Residual          L2-NORM 
          0                 1           2             4    7     1       0.4471054744E-01       4    7    1         0.2355293601E+01      0.5692335876E+01
          0                 2           2             4    7     1      -0.4349135609E-02       4    7    1        -0.2355306608E+00      0.5692234386E+00
          0                 3           2             4    7     1       0.2961598305E-03       4    7    1         0.1648714107E-01      0.3984498582E-01
          0                 4           1             4    7     1      -0.1178447741E-04       4    7    1        -0.6743250626E-03      0.1629616573E-02

    ------------------------------------------------
       NWT REQUIRED            4 OUTER ITERATIONS 
       AND A TOTAL OF          7 INNER ITERATIONS.
    ------------------------------------------------

 NO OUTPUT CONTROL FOR STRESS PERIOD   22   TIME STEP   23
 
 SOLVING FOR HEAD 
                                                   Max.-Head-Change                         Max.-Flux-Residual
  Residual-Control   Outer-Iter.   Inner-Iter.     Column Row Layer    Maximum-Head-Change  Column Row Layer    Maximum-Flux-Residual          L2-NORM 
          0                 1           2             4    7     1       0.4408420880E-01       4    7    1         0.2322935047E+01      0.5574565684E+01
          0                 2           2             4    7     1      -0.4288210508E-02       4    7    1        -0.2322948417E+00      0.5574472265E+00
          0                 3           2             4    7     1       0.2920110513E-03       4    7    1         0.1626063329E-01      0.3902070621E-01
          0                 4           1             4    7     1      -0.1161939387E-04       4    7    1        -0.6650608884E-03      0.1595906056E-02

    ------------------------------------------------
       NWT REQUIRED            4 OUTER ITERATIONS 
       AND A TOTAL OF          7 INNER ITERATIONS.
    ------------------------------------------------

 NO OUTPUT CONTROL FOR STRESS PERIOD   22   TIME STEP   24
 
 SOLVING FOR HEAD 
                                                   Max.-Head-Change                         Max.-Flux-Residual
  Residual-Control   Outer-Iter.   Inner-Iter.     Column Row Layer    Maximum-Head-Change  Column Row Layer    Maximum-Flux-Residual          L2-NORM 
          0                 1           2             4    7     1       0.4345554073E-01       4    7    1         0.2290398888E+01      0.5460986091E+01
          0                 2           2             4    7     1      -0.4227058695E-02       4    7    1        -0.2290412540E+00      0.5460899998E+00
          0                 3           2             4    7     1       0.2878468356E-03       4    7    1         0.1603288180E-01      0.3822573523E-01
          0                 4           1             4    7     1      -0.1145369601E-04       4    7    1        -0.6557458576E-03      0.1563392764E-02

    ------------------------------------------------
       NWT REQUIRED            4 OUTER ITERATIONS 
       AND A TOTAL OF          7 INNER ITERATIONS.
    ------------------------------------------------

 NO OUTPUT CONTROL FOR STRESS PERIOD   22   TIME STEP   25
 
 SOLVING FOR HEAD 
                                                   Max.-Head-Change                         Max.-Flux-Residual
  Residual-Control   Outer-Iter.   Inner-Iter.     Column Row Layer    Maximum-Head-Change  Column Row Layer    Maximum-Flux-Residual          L2-NORM 
          0                 1           2             4    7     1       0.4282541713E-01       4    7    1         0.2257734561E+01      0.5351382067E+01
          0                 2           2             4    7     1      -0.4165765189E-02       4    7    1        -0.2257748423E+00      0.5351302695E+00
          0                 3           2             4    7     1       0.2836729715E-03       4    7    1         0.1580423268E-01      0.3745859214E-01
          0                 4           1             4    7     1      -0.1128761397E-04       4    7    1        -0.6463940790E-03      0.1531994449E-02

    ------------------------------------------------
       NWT REQUIRED            4 OUTER ITERATIONS 
       AND A TOTAL OF          7 INNER ITERATIONS.
    ------------------------------------------------

 NO OUTPUT CONTROL FOR STRESS PERIOD   22   TIME STEP   26
 
 SOLVING FOR HEAD 
                                                   Max.-Head-Change                         Max.-Flux-Residual
  Residual-Control   Outer-Iter.   Inner-Iter.     Column Row Layer    Maximum-Head-Change  Column Row Layer    Maximum-Flux-Residual          L2-NORM 
          0                 1           2             4    7     1       0.4219490228E-01       4    7    1         0.2225001652E+01      0.5245548090E+01
          0                 2           2             4    7     1      -0.4104433527E-02       4    7    1        -0.2225015659E+00      0.5245474763E+00
          0                 3           2             4    7     1       0.2794965103E-03       4    7    1         0.1557510309E-01      0.3671786010E-01
          0                 4           1             4    7     1      -0.1112142854E-04       4    7    1        -0.6370226711E-03      0.1501726580E-02

    ------------------------------------------------
       NWT REQUIRED            4 OUTER ITERATIONS 
       AND A TOTAL OF          7 INNER ITERATIONS.
    ------------------------------------------------

 NO OUTPUT CONTROL FOR STRESS PERIOD   22   TIME STEP   27
 
 SOLVING FOR HEAD 
                                                   Max.-Head-Change                         Max.-Flux-Residual
  Residual-Control   Outer-Iter.   Inner-Iter.     Column Row Layer    Maximum-Head-Change  Column Row Layer    Maximum-Flux-Residual          L2-NORM 
          0                 1           2             4    7     1       0.4156471928E-01       4    7    1         0.2192241185E+01      0.5143294347E+01
          0                 2           2             4    7     1      -0.4043134060E-02       4    7    1        -0.2192255280E+00      0.5143226399E+00
          0                 3           2             4    7     1       0.2753222423E-03       4    7    1         0.1534578025E-01      0.3600215722E-01
          0                 4           1             4    7     1      -0.1095533039E-04       4    7    1        -0.6276433485E-03      0.1472462744E-02

    ------------------------------------------------
       NWT REQUIRED            4 OUTER ITERATIONS 
       AND A TOTAL OF          7 INNER ITERATIONS.
    ------------------------------------------------

 NO OUTPUT CONTROL FOR STRESS PERIOD   22   TIME STEP   28
 
 SOLVING FOR HEAD 
                                                   Max.-Head-Change                         Max.-Flux-Residual
  Residual-Control   Outer-Iter.   Inner-Iter.     Column Row Layer    Maximum-Head-Change  Column Row Layer    Maximum-Flux-Residual          L2-NORM 
          0                 1           2             4    7     1       0.4093579020E-01       4    7    1         0.2159505048E+01      0.5044439115E+01
          0                 2           2             4    7     1      -0.3981956488E-02       4    7    1        -0.2159519180E+00      0.5044375908E+00
          0                 3           2             4    7     1       0.2711562757E-03       4    7    1         0.1511662742E-01      0.3531022255E-01
          0                 4           1             4    7     1      -0.1078956276E-04       4    7    1        -0.6182709869E-03      0.1444161446E-02

    ------------------------------------------------
       NWT REQUIRED            4 OUTER ITERATIONS 
       AND A TOTAL OF          7 INNER ITERATIONS.
    ------------------------------------------------

 NO OUTPUT CONTROL FOR STRESS PERIOD   22   TIME STEP   29
 
 SOLVING FOR HEAD 
                                                   Max.-Head-Change                         Max.-Flux-Residual
  Residual-Control   Outer-Iter.   Inner-Iter.     Column Row Layer    Maximum-Head-Change  Column Row Layer    Maximum-Flux-Residual          L2-NORM 
          0                 1           2             4    7     1       0.4030882621E-01       4    7    1         0.2126833674E+01      0.4950536735E+01
          0                 2           2             4    7     1      -0.3920969998E-02       4    7    1        -0.2126847798E+00      0.4950454431E+00
          0                 3           2             4    7     1       0.2670033218E-03       4    7    1         0.1488792766E-01      0.3465258863E-01
          0                 4           1             4    7     1      -0.1062431275E-04       4    7    1        -0.6089171522E-03      0.1417241946E-02

    ------------------------------------------------
       NWT REQUIRED            4 OUTER ITERATIONS 
       AND A TOTAL OF          7 INNER ITERATIONS.
    ------------------------------------------------

 NO OUTPUT CONTROL FOR STRESS PERIOD   22   TIME STEP   30



 STREAM LISTING     PERIOD     22   STEP       30

 LAYER ROW COL. STREAM  RCH.  FLOW INTO     FLOW TO   FLOW OUT OF   OVRLND.     DIRECT     STREAM       STREAM     STREAM     STREAM   STREAMBED  STREAMBED
                SEG.NO.  NO.  STRM. RCH.    AQUIFER    STRM. RCH.    RUNOFF     PRECIP       ET          HEAD       DEPTH      WIDTH   CONDCTNC.   GRADIENT

   1    1    1     1     1    2.4431E+01  2.4251E-01   2.4189E+01  0.000E+00  0.000E+00  0.000E+00  1.09422E+03  1.170E+00  1.292E+01  5.816E-02  1.390E+00
   1    2    2     1     2    2.4189E+01  3.7499E-01   2.3814E+01  0.000E+00  0.000E+00  0.000E+00  1.08922E+03  1.165E+00  1.286E+01  9.003E-02  1.388E+00
   1    3    3     1     3    2.3814E+01  3.1923E-01   2.3495E+01  0.000E+00  0.000E+00  0.000E+00  1.08358E+03  1.160E+00  1.279E+01  7.674E-02  1.387E+00
   1    3    4     1     4    2.3495E+01  2.9350E-01   2.3201E+01  0.000E+00  0.000E+00  0.000E+00  1.07856E+03  1.155E+00  1.273E+01  7.064E-02  1.385E+00
   1    4    5     2     1    2.1201E+01  3.1894E-01   2.0882E+01  0.000E+00  0.000E+00  0.000E+00  1.07302E+03  1.089E+00  1.200E+01  7.800E-02  1.363E+00
   1    5    6     2     2    2.0882E+01  2.4481E-01   2.0637E+01  0.000E+00  0.000E+00  0.000E+00  1.06759E+03  1.080E+00  1.200E+01  6.000E-02  1.360E+00
   1    6    6     2     3    2.0637E+01  2.4435E-01   2.0393E+01  0.000E+00  0.000E+00  0.000E+00  1.06286E+03  1.072E+00  1.200E+01  6.000E-02  1.357E+00
   1    7    6     2     4    2.0393E+01  2.4389E-01   2.0149E+01  0.000E+00  0.000E+00  0.000E+00  1.05814E+03  1.065E+00  1.200E+01  6.000E-02  1.355E+00
   1    8    6     2     5    2.0149E+01  2.4343E-01   1.9906E+01  0.000E+00  0.000E+00  0.000E+00  1.05342E+03  1.057E+00  1.200E+01  6.000E-02  1.352E+00
   1    3    5     3     1    2.0000E+00  2.8252E-01   1.7175E+00  0.000E+00  0.000E+00  0.000E+00  1.07555E+03  1.909E+00  9.636E+00  7.227E-02  1.955E+00
   1    3    6     3     2    1.7175E+00  2.4905E-01   1.4684E+00  0.000E+00  0.000E+00  0.000E+00  1.07264E+03  1.727E+00  8.909E+00  6.682E-02  1.864E+00
   1    3    7     3     3    1.4684E+00  1.9718E-01   1.2712E+00  0.000E+00  0.000E+00  0.000E+00  1.06987E+03  1.555E+00  8.218E+00  5.547E-02  1.777E+00
   1    4    8     3     4    1.2712E+00  2.2567E-01   1.0456E+00  0.000E+00  0.000E+00  0.000E+00  1.06682E+03  1.364E+00  7.455E+00  6.709E-02  1.682E+00
   1    5    8     3     5    1.0456E+00  1.5790E-01   8.8768E-01  0.000E+00  0.000E+00  0.000E+00  1.06362E+03  1.164E+00  6.655E+00  4.991E-02  1.582E+00
   1    6    8     3     6    8.8768E-01  5.5980E-02   8.3170E-01  0.000E+00  0.000E+00  0.000E+00  1.06158E+03  1.036E+00  6.145E+00  1.844E-02  1.518E+00
   1    5   10     4     1    1.0000E+01  9.0919E-02   9.9091E+00  0.000E+00  0.000E+00  0.000E+00  1.07836E+03  6.368E-01  1.000E+01  2.500E-02  1.212E+00
   1    5    9     4     2    9.9091E+00  1.8158E-01   9.7275E+00  0.000E+00  0.000E+00  0.000E+00  1.07154E+03  6.315E-01  1.000E+01  5.000E-02  1.211E+00
   1    6    8     4     3    9.7275E+00  1.2689E-01   9.6006E+00  0.000E+00  0.000E+00  0.000E+00  1.06381E+03  6.256E-01  1.000E+01  3.500E-02  1.209E+00
   1    6    8     5     1    1.0432E+01  2.2686E-01   1.0205E+01  0.000E+00  0.000E+00  0.000E+00  1.05868E+03  6.790E-01  1.542E+01  6.166E-02  1.226E+00
   1    7    7     5     2    1.0205E+01  2.7894E-01   9.9265E+00  0.000E+00  0.000E+00  0.000E+00  1.05417E+03  6.732E-01  1.519E+01  7.594E-02  1.224E+00
   1    8    7     5     3    9.9265E+00  1.9221E-01   9.7343E+00  0.000E+00  0.000E+00  0.000E+00  1.04992E+03  6.676E-01  1.497E+01  5.241E-02  1.223E+00
   1    8    6     5     4    9.7343E+00  1.3577E-01   9.5985E+00  0.000E+00  0.000E+00  0.000E+00  1.04691E+03  6.637E-01  1.482E+01  3.706E-02  1.221E+00
   1    9    6     6     1    2.9504E+01  2.6070E-01   2.9244E+01  0.000E+00  0.000E+00  0.000E+00  1.04407E+03  1.345E+00  1.200E+01  6.000E-02  1.448E+00
   1   10    7     6     2    2.9244E+01  2.6027E-01   2.8983E+01  0.000E+00  0.000E+00  0.000E+00  1.03952E+03  1.338E+00  1.200E+01  6.000E-02  1.446E+00
   1   11    7     6     3    2.8983E+01  2.5984E-01   2.8723E+01  0.000E+00  0.000E+00  0.000E+00  1.03497E+03  1.331E+00  1.200E+01  6.000E-02  1.444E+00
   1   12    7     6     4    2.8723E+01  2.5941E-01   2.8464E+01  0.000E+00  0.000E+00  0.000E+00  1.03041E+03  1.324E+00  1.200E+01  6.000E-02  1.441E+00
   1   13    7     6     5    2.8464E+01  4.3835E-03   2.8460E+01  0.000E+00  0.000E+00  0.000E+00  1.02723E+03  1.320E+00  1.200E+01  2.400E-02  6.088E-02
   1   14    9     7     1    1.5000E+02  1.3341E+00   1.4867E+02  0.000E+00  0.000E+00  0.000E+00  1.03987E+03  2.288E+00  5.529E+01  5.593E-01  7.951E-01
   1   13    8     7     2    1.4867E+02  1.8378E+00   1.4683E+02  0.000E+00  0.000E+00  0.000E+00  1.03478E+03  2.279E+00  5.526E+01  6.148E-01  9.964E-01
   1   13    7     7     3    1.4683E+02  1.4763E+00   1.4535E+02  0.000E+00  0.000E+00  0.000E+00  1.02969E+03  2.270E+00  5.522E+01  5.585E-01  8.812E-01
   1   13    6     8     1    1.7381E+02  9.4182E-01   1.7287E+02  0.000E+00  0.000E+00  0.000E+00  1.02485E+03  2.974E+00  4.312E+01  4.394E-01  7.145E-01
   1   13    5     8     2    1.7287E+02  1.9151E-01   1.7268E+02  0.000E+00  0.000E+00  0.000E+00  1.01860E+03  2.970E+00  4.307E+01  4.389E-01  1.455E-01
   1   13    4     8     3    1.7268E+02 -2.3928E+00   1.7507E+02  0.000E+00  0.000E+00  0.000E+00  1.01235E+03  2.977E+00  4.317E+01  4.399E+00 -1.813E-01
   1   13    3     8     4    1.7507E+02 -3.6531E+00   1.7872E+02  0.000E+00  0.000E+00  0.000E+00  1.00612E+03  2.997E+00  4.345E+01  4.428E+00 -2.750E-01
   1   13    2     8     5    1.7872E+02 -2.6118E+00   1.8134E+02  0.000E+00  0.000E+00  0.000E+00  9.99891E+02  3.016E+00  4.374E+01  4.457E+00 -1.953E-01
   1   13    1     8     6    1.8134E+02 -2.0293E+00   1.8337E+02  0.000E+00  0.000E+00  0.000E+00  9.94906E+02  3.031E+00  4.395E+01  2.687E+00 -2.517E-01





UNSATURATED ZONE PACKAGE VOLUMETRIC BUDGET FOR  TIME STEP    30 STRESS PERIOD   22
  ------------------------------------------------------------------------------



     CUMULATIVE VOLUMES      L**3       RATES FOR THIS TIME STEP      L**3/T
     ------------------                 ------------------------

           IN:                                      IN:
           ---                                      ---
        INFILTRATION =  1041003175.1782          INFILTRATION =          15.3465

          OUT:                                     OUT:
          ----                                     ----
              UZF ET =   984724686.1730                UZF ET =          15.3575
        UZF RECHARGE =      797071.6500          UZF RECHARGE =       0.0000E+00

            IN - OUT =    55481417.3553              IN - OUT =      -1.1019E-02

          STORAGE:                                 STORAGE:
          --------                                 --------
      STORAGE CHANGE =    55483060.9828        STORAGE CHANGE =      -1.1020E-02

 PERCENT DISCREPANCY IS DIFFERENCE BETWEEN IN-OUT MINUS CHANGE IN STORAGE
 DIVIDED BY THE AVERAGE OF IN AND OUT TIMES 100

 PERCENT DISCREPANCY =          -0.00     PERCENT DISCREPANCY =           0.00






1
  VOLUMETRIC BUDGET FOR ENTIRE MODEL AT END OF TIME STEP   30, STRESS PERIOD  22
  ------------------------------------------------------------------------------

     CUMULATIVE VOLUMES      L**3       RATES FOR THIS TIME STEP      L**3/T
     ------------------                 ------------------------

           IN:                                      IN:
           ---                                      ---
               AG WELLS  =   797503936.0000                 AG WELLS  =          10.9390
      DIVERSION SEGMENTS =           0.0000        DIVERSION SEGMENTS =           0.0000
           GW IRRIGATION =           0.0000             GW IRRIGATION =           0.0000
           SW IRRIGATION =           0.0000             SW IRRIGATION =           0.0000
        SYSTEM LOSSES GW =           0.0000          SYSTEM LOSSES GW =           0.0000
        SYSTEM LOSSES SW =           0.0000          SYSTEM LOSSES SW =           0.0000

                TOTAL IN =   797503936.0000                  TOTAL IN =          10.9390

          OUT:                                     OUT:
          ----                                     ----
               AG WELLS  =           0.0000                 AG WELLS  =           0.0000
      DIVERSION SEGMENTS =           0.0000        DIVERSION SEGMENTS =           0.0000
           GW IRRIGATION =   797503936.0000             GW IRRIGATION =          10.9390
           SW IRRIGATION =           0.0000             SW IRRIGATION =           0.0000
        SYSTEM LOSSES GW =           0.0000          SYSTEM LOSSES GW =           0.0000
        SYSTEM LOSSES SW =           0.0000          SYSTEM LOSSES SW =           0.0000

               TOTAL OUT =   797503936.0000                 TOTAL OUT =          10.9390

                IN - OUT =           0.0000                  IN - OUT =           0.0000

     PERCENT DISCREPANCY =           0.00         PERCENT DISCREPANCY =           0.00



1
  VOLUMETRIC BUDGET FOR ENTIRE MODEL AT END OF TIME STEP   30, STRESS PERIOD  22
  ------------------------------------------------------------------------------

     CUMULATIVE VOLUMES      L**3       RATES FOR THIS TIME STEP      L**3/T
     ------------------                 ------------------------

           IN:                                      IN:
           ---                                      ---
             STORAGE     =   988509376.0000               STORAGE     =          19.6362
       CONSTANT HEAD     =           0.0000         CONSTANT HEAD     =           0.0000
     HEAD DEP BOUNDS     =    15789107.0000       HEAD DEP BOUNDS     =           0.2856
      STREAM LEAKAGE     =   692527104.0000        STREAM LEAKAGE     =          11.7532
        UZF RECHARGE     =      797071.5625          UZF RECHARGE     =           0.0000
               GW ET     =           0.0000                 GW ET     =           0.0000
     SURFACE LEAKAGE     =           0.0000       SURFACE LEAKAGE     =           0.0000
           AG WELLS      =           0.0000             AG WELLS      =           0.0000

                TOTAL IN =  1697622656.0000                  TOTAL IN =          31.6751

          OUT:                                     OUT:
          ----                                     ----
             STORAGE     =   292751712.0000               STORAGE     =           9.7580
       CONSTANT HEAD     =           0.0000         CONSTANT HEAD     =           0.0000
     HEAD DEP BOUNDS     =    16297263.0000       HEAD DEP BOUNDS     =           0.2911
      STREAM LEAKAGE     =   573754048.0000        STREAM LEAKAGE     =          10.6870
        UZF RECHARGE     =           0.0000          UZF RECHARGE     =           0.0000
               GW ET     =    17319432.0000                 GW ET     =           0.0000
     SURFACE LEAKAGE     =           0.0000       SURFACE LEAKAGE     =           0.0000
           AG WELLS      =   797503936.0000             AG WELLS      =          10.9390

               TOTAL OUT =  1697626368.0000                 TOTAL OUT =          31.6751

                IN - OUT =       -3712.0000                  IN - OUT =      -3.2425E-05

     PERCENT DISCREPANCY =          -0.00         PERCENT DISCREPANCY =          -0.00






         TIME SUMMARY AT END OF TIME STEP   30 IN STRESS PERIOD   22
                    SECONDS     MINUTES      HOURS       DAYS        YEARS
                    -----------------------------------------------------------
   TIME STEP LENGTH  87667.      1461.1      24.352      1.0147     2.77799E-03
 STRESS PERIOD TIME 2.63000E+06  43833.      730.56      30.440     8.33397E-02
         TOTAL TIME 5.53166E+07 9.21944E+05  15366.      640.24      1.7529    
1
1
                            STRESS PERIOD NO.   23, LENGTH =   2630000.    
                            -----------------------------------------------

                              NUMBER OF TIME STEPS =    30

                               MULTIPLIER FOR DELT =     1.000

                            INITIAL TIME STEP SIZE =   87666.66    

 REUSING NON-PARAMETER GHB CELLS FROM LAST STRESS PERIOD

      2 GHB CELLS

 REUSING STREAM SEGMENT DATA FROM LAST STRESS PERIOD



            AREAL INFILTRATION RATE
 READING ON UNIT   19 WITH FORMAT: (10F4.0)            

            1           2           3           4           5           6           7           8           9          10
 ........................................................................................................................
   1   1.2000E-09   0.000       0.000       0.000       0.000       0.000       0.000       0.000       0.000       0.000    
   2   2.1000E-09  2.0000E-09  8.0000E-10  8.5000E-09   0.000       0.000       0.000       0.000       0.000       0.000    
   3   5.0000E-10  1.1000E-09  8.8000E-09  5.5000E-09   0.000       0.000       0.000       0.000       0.000       0.000    
   4   8.5000E-09  1.1000E-09  1.1000E-09  1.1000E-09  2.0000E-09   0.000       0.000       0.000       0.000       0.000    
   5   8.5000E-09  1.1000E-09  1.1000E-09  1.1000E-09  1.1000E-09   0.000       0.000       0.000       0.000       0.000    
   6   8.5000E-09  5.2000E-09  2.1000E-09  1.1000E-09  1.5000E-09   0.000       0.000       0.000       0.000       0.000    
   7   8.5000E-09  5.2000E-09  2.1000E-09  1.2000E-09  2.0000E-09   0.000       0.000       0.000       0.000       0.000    
   8   5.0000E-10  5.2000E-09  2.1000E-09  1.2000E-09  5.0000E-09   0.000       0.000       0.000       0.000       0.000    
   9   5.0000E-10  5.2000E-09  2.1000E-09  1.2000E-09  5.0000E-09   0.000       0.000       0.000       0.000       0.000    
  10   5.0000E-10  5.2000E-09  2.1000E-09  1.2000E-09  5.8000E-09   0.000       0.000       0.000       0.000       0.000    
  11   1.0000E-10  1.1000E-09  1.1000E-09  1.2000E-09  5.0000E-09   0.000       0.000       0.000       0.000       0.000    
  12   1.1000E-09  1.1000E-09  1.1000E-09  1.1000E-09  2.0000E-09   0.000       0.000       0.000       0.000       0.000    
  13   1.1000E-09  2.2000E-09  2.2000E-09  2.1000E-09  1.0000E-09   0.000       0.000       0.000       0.000       0.000    
  14   2.0000E-10  5.5000E-09  5.5000E-09  5.2000E-09  1.0000E-09   0.000       0.000       0.000       0.000       0.000    
  15    0.000      8.8000E-09  8.8000E-09   0.000       0.000       0.000       0.000       0.000       0.000       0.000    

                  ET RATE =  5.000000E-09

 USING ET EXTINCTION DEPTH FROM PREVIOUS STRESS PERIOD. CURRENT PERIOD IS:      23

 USING EXTINCTION WATER CONTENT FROM PREVIOUS STRESS PERIOD. CURRENT PERIOD IS:      23

 USING AIR ENTRY PRESSURE FROM PREVIOUS STRESS PERIOD. CURRENT PERIOD IS:      23

 USING ROOT PRESSURE HEAD FROM PREVIOUS STRESS PERIOD. CURRENT PERIOD IS:      23

 USING ROOT ACTIVITY FROM PREVIOUS STRESS PERIOD. CURRENT PERIOD IS:      23

 PROCESSING AG STRESS PERIOD DATA

 READING AG STRESS PERIOD DATA

 READING IRRIGATION WELL

 END PROCESSING AG STRESS PERIOD DATA OPTIONS
 
 SOLVING FOR HEAD 
                                                   Max.-Head-Change                         Max.-Flux-Residual
  Residual-Control   Outer-Iter.   Inner-Iter.     Column Row Layer    Maximum-Head-Change  Column Row Layer    Maximum-Flux-Residual          L2-NORM 
          0                 1           2             4    7     1       0.7497418713E-01       4    7    1         0.3936701800E+01      0.8868052781E+01
          0                 2           2             4    7     1      -0.7293005486E-02       4    7    1        -0.3936743802E+00      0.8867931838E+00
          0                 3           2             4    7     1       0.4966260354E-03       4    7    1         0.2755717878E-01      0.6207447617E-01
          0                 4           1             4    7     1      -0.1976121731E-04       4    7    1        -0.1127090374E-02      0.2538771572E-02

    ------------------------------------------------
       NWT REQUIRED            4 OUTER ITERATIONS 
       AND A TOTAL OF          7 INNER ITERATIONS.
    ------------------------------------------------

 NO OUTPUT CONTROL FOR STRESS PERIOD   23   TIME STEP    1
 
 SOLVING FOR HEAD 
                                                   Max.-Head-Change                         Max.-Flux-Residual
  Residual-Control   Outer-Iter.   Inner-Iter.     Column Row Layer    Maximum-Head-Change  Column Row Layer    Maximum-Flux-Residual          L2-NORM 
          0                 1           2             4    7     1       0.7416825979E-01       4    7    1         0.3895459818E+01      0.8693074572E+01
          0                 2           2             4    7     1      -0.7214612732E-02       4    7    1        -0.3895503147E+00      0.8692969077E+00
          0                 3           2             4    7     1       0.4912877601E-03       4    7    1         0.2726849282E-01      0.6084985812E-01
          0                 4           1             4    7     1      -0.1954880239E-04       4    7    1        -0.1115283111E-02      0.2488706938E-02

    ------------------------------------------------
       NWT REQUIRED            4 OUTER ITERATIONS 
       AND A TOTAL OF          7 INNER ITERATIONS.
    ------------------------------------------------

 NO OUTPUT CONTROL FOR STRESS PERIOD   23   TIME STEP    2
 
 SOLVING FOR HEAD 
                                                   Max.-Head-Change                         Max.-Flux-Residual
  Residual-Control   Outer-Iter.   Inner-Iter.     Column Row Layer    Maximum-Head-Change  Column Row Layer    Maximum-Flux-Residual          L2-NORM 
          0                 1           2             4    7     1       0.7335216545E-01       4    7    1         0.3853594364E+01      0.8524693045E+01
          0                 2           2             4    7     1      -0.7141511018E-02       4    7    1        -0.3858082466E+00      0.8524853353E+00
          0                 3           2             4    7     1       0.4863097574E-03       4    7    1         0.2700654479E-01      0.5967312021E-01
          0                 4           1             4    7     1      -0.1935072317E-04       4    7    1        -0.1104569417E-02      0.2440590683E-02

    ------------------------------------------------
       NWT REQUIRED            4 OUTER ITERATIONS 
       AND A TOTAL OF          7 INNER ITERATIONS.
    ------------------------------------------------

 NO OUTPUT CONTROL FOR STRESS PERIOD   23   TIME STEP    3
 
 SOLVING FOR HEAD 
                                                   Max.-Head-Change                         Max.-Flux-Residual
  Residual-Control   Outer-Iter.   Inner-Iter.     Column Row Layer    Maximum-Head-Change  Column Row Layer    Maximum-Flux-Residual          L2-NORM 
          0                 1           2             4    7     1       0.7250494852E-01       4    7    1         0.3810852449E+01      0.8362496192E+01
          0                 2           2             4    7     1      -0.7052823418E-02       4    7    1        -0.3810899593E+00      0.8362415819E+00
          0                 3           2             4    7     1       0.4802704535E-03       4    7    1         0.2667626407E-01      0.5853615371E-01
          0                 4           1             4    7     1      -0.1911041399E-04       4    7    1        -0.1091060943E-02      0.2394102883E-02

    ------------------------------------------------
       NWT REQUIRED            4 OUTER ITERATIONS 
       AND A TOTAL OF          7 INNER ITERATIONS.
    ------------------------------------------------

 NO OUTPUT CONTROL FOR STRESS PERIOD   23   TIME STEP    4
 
 SOLVING FOR HEAD 
                                                   Max.-Head-Change                         Max.-Flux-Residual
  Residual-Control   Outer-Iter.   Inner-Iter.     Column Row Layer    Maximum-Head-Change  Column Row Layer    Maximum-Flux-Residual          L2-NORM 
          0                 1           2             4    7     1       0.7165773500E-01       4    7    1         0.3767173474E+01      0.8206100913E+01
          0                 2           2             4    7     1      -0.6970414533E-02       4    7    1        -0.3767221332E+00      0.8206062935E+00
          0                 3           2             4    7     1       0.4746587026E-03       4    7    1         0.2637051544E-01      0.5744171128E-01
          0                 4           1             4    7     1      -0.1888711687E-04       4    7    1        -0.1078555789E-02      0.2349293254E-02

    ------------------------------------------------
       NWT REQUIRED            4 OUTER ITERATIONS 
       AND A TOTAL OF          7 INNER ITERATIONS.
    ------------------------------------------------

 NO OUTPUT CONTROL FOR STRESS PERIOD   23   TIME STEP    5
 
 SOLVING FOR HEAD 
                                                   Max.-Head-Change                         Max.-Flux-Residual
  Residual-Control   Outer-Iter.   Inner-Iter.     Column Row Layer    Maximum-Head-Change  Column Row Layer    Maximum-Flux-Residual          L2-NORM 
          0                 1           2             4    7     1       0.7080549647E-01       4    7    1         0.3723159977E+01      0.8055200280E+01
          0                 2           2             4    7     1      -0.6887515032E-02       4    7    1        -0.3723208375E+00      0.8055139767E+00
          0                 3           2             4    7     1       0.4690135458E-03       4    7    1         0.2606242408E-01      0.5638530454E-01
          0                 4           1             4    7     1      -0.1866249083E-04       4    7    1        -0.1065954844E-02      0.2306107106E-02

    ------------------------------------------------
       NWT REQUIRED            4 OUTER ITERATIONS 
       AND A TOTAL OF          7 INNER ITERATIONS.
    ------------------------------------------------

 NO OUTPUT CONTROL FOR STRESS PERIOD   23   TIME STEP    6
 
 SOLVING FOR HEAD 
                                                   Max.-Head-Change                         Max.-Flux-Residual
  Residual-Control   Outer-Iter.   Inner-Iter.     Column Row Layer    Maximum-Head-Change  Column Row Layer    Maximum-Flux-Residual          L2-NORM 
          0                 1           2             4    7     1       0.6994941182E-01       4    7    1         0.3678871457E+01      0.7909437211E+01
          0                 2           2             4    7     1      -0.6804241910E-02       4    7    1        -0.3678920226E+00      0.7909384996E+00
          0                 3           2             4    7     1       0.4633429494E-03       4    7    1         0.2575240655E-01      0.5536510159E-01
          0                 4           1             4    7     1      -0.1843685271E-04       4    7    1        -0.1053275120E-02      0.2264404187E-02

    ------------------------------------------------
       NWT REQUIRED            4 OUTER ITERATIONS 
       AND A TOTAL OF          7 INNER ITERATIONS.
    ------------------------------------------------

 NO OUTPUT CONTROL FOR STRESS PERIOD   23   TIME STEP    7
 
 SOLVING FOR HEAD 
                                                   Max.-Head-Change                         Max.-Flux-Residual
  Residual-Control   Outer-Iter.   Inner-Iter.     Column Row Layer    Maximum-Head-Change  Column Row Layer    Maximum-Flux-Residual          L2-NORM 
          0                 1           2             4    7     1       0.6909109831E-01       4    7    1         0.3634397984E+01      0.7768570193E+01
          0                 2           2             4    7     1      -0.6720751758E-02       4    7    1        -0.3634446974E+00      0.7768524962E+00
          0                 3           2             4    7     1       0.4576575759E-03       4    7    1         0.2544109344E-01      0.5437913684E-01
          0                 4           1             4    7     1      -0.1821062629E-04       4    7    1        -0.1040542379E-02      0.2224096670E-02

    ------------------------------------------------
       NWT REQUIRED            4 OUTER ITERATIONS 
       AND A TOTAL OF          7 INNER ITERATIONS.
    ------------------------------------------------

 NO OUTPUT CONTROL FOR STRESS PERIOD   23   TIME STEP    8
 
 SOLVING FOR HEAD 
                                                   Max.-Head-Change                         Max.-Flux-Residual
  Residual-Control   Outer-Iter.   Inner-Iter.     Column Row Layer    Maximum-Head-Change  Column Row Layer    Maximum-Flux-Residual          L2-NORM 
          0                 1           2             4    7     1       0.6823165398E-01       4    7    1         0.3589801647E+01      0.7632325993E+01
          0                 2           2             4    7     1      -0.6637151405E-02       4    7    1        -0.3589850723E+00      0.7632287261E+00
          0                 3           2             4    7     1       0.4519647006E-03       4    7    1         0.2512891948E-01      0.5342551587E-01
          0                 4           1             4    7     1      -0.1798410133E-04       4    7    1        -0.1027774447E-02      0.2185086188E-02

    ------------------------------------------------
       NWT REQUIRED            4 OUTER ITERATIONS 
       AND A TOTAL OF          7 INNER ITERATIONS.
    ------------------------------------------------

 NO OUTPUT CONTROL FOR STRESS PERIOD   23   TIME STEP    9
 
 SOLVING FOR HEAD 
                                                   Max.-Head-Change                         Max.-Flux-Residual
  Residual-Control   Outer-Iter.   Inner-Iter.     Column Row Layer    Maximum-Head-Change  Column Row Layer    Maximum-Flux-Residual          L2-NORM 
          0                 1           2             4    7     1       0.6737223006E-01       4    7    1         0.3545146646E+01      0.7500460169E+01
          0                 2           2             4    7     1      -0.6553552855E-02       4    7    1        -0.3545195686E+00      0.7500426997E+00
          0                 3           2             4    7     1       0.4462719496E-03       4    7    1         0.2481633412E-01      0.5250251431E-01
          0                 4           1             4    7     1      -0.1775758156E-04       4    7    1        -0.1014989689E-02      0.2147323538E-02

    ------------------------------------------------
       NWT REQUIRED            4 OUTER ITERATIONS 
       AND A TOTAL OF          7 INNER ITERATIONS.
    ------------------------------------------------

 NO OUTPUT CONTROL FOR STRESS PERIOD   23   TIME STEP   10
 
 SOLVING FOR HEAD 
                                                   Max.-Head-Change                         Max.-Flux-Residual
  Residual-Control   Outer-Iter.   Inner-Iter.     Column Row Layer    Maximum-Head-Change  Column Row Layer    Maximum-Flux-Residual          L2-NORM 
          0                 1           2             4    7     1       0.6651401729E-01       4    7    1         0.3500499944E+01      0.7372756244E+01
          0                 2           2             4    7     1      -0.6470071955E-02       4    7    1        -0.3500548837E+00      0.7372727956E+00
          0                 3           2             4    7     1       0.4405872120E-03       4    7    1         0.2450380619E-01      0.5160865811E-01
          0                 4           1             4    7     1      -0.1753138070E-04       4    7    1        -0.1002207292E-02      0.2110753853E-02

    ------------------------------------------------
       NWT REQUIRED            4 OUTER ITERATIONS 
       AND A TOTAL OF          7 INNER ITERATIONS.
    ------------------------------------------------

 NO OUTPUT CONTROL FOR STRESS PERIOD   23   TIME STEP   11
 
 SOLVING FOR HEAD 
                                                   Max.-Head-Change                         Max.-Flux-Residual
  Residual-Control   Outer-Iter.   Inner-Iter.     Column Row Layer    Maximum-Head-Change  Column Row Layer    Maximum-Flux-Residual          L2-NORM 
          0                 1           2             4    7     1       0.6565784647E-01       4    7    1         0.3455908735E+01      0.7248990836E+01
          0                 2           2             4    7     1      -0.6386789537E-02       4    7    1        -0.3455957385E+00      0.7248966756E+00
          0                 3           2             4    7     1       0.4349159907E-03       4    7    1         0.2419166610E-01      0.5074239078E-01
          0                 4           1             4    7     1      -0.1730571690E-04       4    7    1        -0.9894407126E-03      0.2075350813E-02

    ------------------------------------------------
       NWT REQUIRED            4 OUTER ITERATIONS 
       AND A TOTAL OF          7 INNER ITERATIONS.
    ------------------------------------------------

 NO OUTPUT CONTROL FOR STRESS PERIOD   23   TIME STEP   12
 
 SOLVING FOR HEAD 
                                                   Max.-Head-Change                         Max.-Flux-Residual
  Residual-Control   Outer-Iter.   Inner-Iter.     Column Row Layer    Maximum-Head-Change  Column Row Layer    Maximum-Flux-Residual          L2-NORM 
          0                 1           2             4    7     1       0.6480460766E-01       4    7    1         0.3411423367E+01      0.7128971189E+01
          0                 2           2             4    7     1      -0.6303792194E-02       4    7    1        -0.3411471688E+00      0.7128986721E+00
          0                 3           2             4    7     1       0.4292641847E-03       4    7    1         0.2388026642E-01      0.4990253156E-01
          0                 4           1             4    7     1      -0.1708082688E-04       4    7    1        -0.9767044742E-03      0.2040988014E-02

    ------------------------------------------------
       NWT REQUIRED            4 OUTER ITERATIONS 
       AND A TOTAL OF          7 INNER ITERATIONS.
    ------------------------------------------------

 NO OUTPUT CONTROL FOR STRESS PERIOD   23   TIME STEP   13
 
 SOLVING FOR HEAD 
                                                   Max.-Head-Change                         Max.-Flux-Residual
  Residual-Control   Outer-Iter.   Inner-Iter.     Column Row Layer    Maximum-Head-Change  Column Row Layer    Maximum-Flux-Residual          L2-NORM 
          0                 1           2             4    7     1       0.6395511479E-01       4    7    1         0.3367089988E+01      0.7012507892E+01
          0                 2           2             4    7     1      -0.6221159115E-02       4    7    1        -0.3367137903E+00      0.7012491164E+00
          0                 3           2             4    7     1       0.4236371842E-03       4    7    1         0.2356993017E-01      0.4908697940E-01
          0                 4           1             4    7     1      -0.1685692303E-04       4    7    1        -0.9640117005E-03      0.2107174230E-02

    ------------------------------------------------
       NWT REQUIRED            4 OUTER ITERATIONS 
       AND A TOTAL OF          7 INNER ITERATIONS.
    ------------------------------------------------

 NO OUTPUT CONTROL FOR STRESS PERIOD   23   TIME STEP   14
 
 SOLVING FOR HEAD 
                                                   Max.-Head-Change                         Max.-Flux-Residual
  Residual-Control   Outer-Iter.   Inner-Iter.     Column Row Layer    Maximum-Head-Change  Column Row Layer    Maximum-Flux-Residual          L2-NORM 
          0                 1           2             4    7     1       0.6311011269E-01       4    7    1         0.3322950800E+01      0.6899440379E+01
          0                 2           2             4    7     1      -0.6138962765E-02       4    7    1        -0.3322998240E+00      0.6899426463E+00
          0                 3           2             4    7     1       0.4180399239E-03       4    7    1         0.2326095283E-01      0.4829566041E-01
          0                 4           1             4    7     1      -0.1663420293E-04       4    7    1        -0.9513745156E-03      0.1975273190E-02

    ------------------------------------------------
       NWT REQUIRED            4 OUTER ITERATIONS 
       AND A TOTAL OF          7 INNER ITERATIONS.
    ------------------------------------------------

 NO OUTPUT CONTROL FOR STRESS PERIOD   23   TIME STEP   15
 
 SOLVING FOR HEAD 
                                                   Max.-Head-Change                         Max.-Flux-Residual
  Residual-Control   Outer-Iter.   Inner-Iter.     Column Row Layer    Maximum-Head-Change  Column Row Layer    Maximum-Flux-Residual          L2-NORM 
          0                 1           2             4    7     1       0.6227041513E-01       4    7    1         0.3279051699E+01      0.6789610822E+01
          0                 2           2             4    7     1      -0.6057282314E-02       4    7    1        -0.3279098606E+00      0.6789599352E+00
          0                 3           2             4    7     1       0.4124777956E-03       4    7    1         0.2295365577E-01      0.4752688821E-01
          0                 4           1             4    7     1      -0.1641288071E-04       4    7    1        -0.9388060369E-03      0.1943841226E-02

    ------------------------------------------------
       NWT REQUIRED            4 OUTER ITERATIONS 
       AND A TOTAL OF          7 INNER ITERATIONS.
    ------------------------------------------------

 NO OUTPUT CONTROL FOR STRESS PERIOD   23   TIME STEP   16
 
 SOLVING FOR HEAD 
                                                   Max.-Head-Change                         Max.-Flux-Residual
  Residual-Control   Outer-Iter.   Inner-Iter.     Column Row Layer    Maximum-Head-Change  Column Row Layer    Maximum-Flux-Residual          L2-NORM 
          0                 1           2             4    7     1       0.6143662712E-01       4    7    1         0.3235427603E+01      0.6682866865E+01
          0                 2           2             4    7     1      -0.5976176625E-02       4    7    1        -0.3235473925E+00      0.6682857488E+00
          0                 3           2             4    7     1       0.4069548072E-03       4    7    1         0.2264828343E-01      0.4677971107E-01
          0                 4           1             4    7     1      -0.1619311583E-04       4    7    1        -0.9263162829E-03      0.1913272176E-02

    ------------------------------------------------
       NWT REQUIRED            4 OUTER ITERATIONS 
       AND A TOTAL OF          7 INNER ITERATIONS.
    ------------------------------------------------

 NO OUTPUT CONTROL FOR STRESS PERIOD   23   TIME STEP   17
 
 SOLVING FOR HEAD 
                                                   Max.-Head-Change                         Max.-Flux-Residual
  Residual-Control   Outer-Iter.   Inner-Iter.     Column Row Layer    Maximum-Head-Change  Column Row Layer    Maximum-Flux-Residual          L2-NORM 
          0                 1           2             4    7     1       0.6060916864E-01       4    7    1         0.3192102602E+01      0.6579078009E+01
          0                 2           2             4    7     1      -0.5895686560E-02       4    7    1        -0.3192148294E+00      0.6579070597E+00
          0                 3           2             4    7     1       0.4014737413E-03       4    7    1         0.2234500448E-01      0.4605321696E-01
          0                 4           1             4    7     1      -0.1597501879E-04       4    7    1        -0.9139121644E-03      0.1883558221E-02

    ------------------------------------------------
       NWT REQUIRED            4 OUTER ITERATIONS 
       AND A TOTAL OF          7 INNER ITERATIONS.
    ------------------------------------------------

 NO OUTPUT CONTROL FOR STRESS PERIOD   23   TIME STEP   18
 
 SOLVING FOR HEAD 
                                                   Max.-Head-Change                         Max.-Flux-Residual
  Residual-Control   Outer-Iter.   Inner-Iter.     Column Row Layer    Maximum-Head-Change  Column Row Layer    Maximum-Flux-Residual          L2-NORM 
          0                 1           2             4    7     1       0.5978867760E-01       4    7    1         0.3149113029E+01      0.6478111468E+01
          0                 2           2             4    7     1      -0.5815874179E-02       4    7    1        -0.3149158053E+00      0.6478105658E+00
          0                 3           2             4    7     1       0.3960388237E-03       4    7    1         0.2204407330E-01      0.4534647408E-01
          0                 4           1             4    7     1      -0.1575875839E-04       4    7    1        -0.9016040503E-03      0.1854658360E-02

    ------------------------------------------------
       NWT REQUIRED            4 OUTER ITERATIONS 
       AND A TOTAL OF          7 INNER ITERATIONS.
    ------------------------------------------------

 NO OUTPUT CONTROL FOR STRESS PERIOD   23   TIME STEP   19
 
 SOLVING FOR HEAD 
                                                   Max.-Head-Change                         Max.-Flux-Residual
  Residual-Control   Outer-Iter.   Inner-Iter.     Column Row Layer    Maximum-Head-Change  Column Row Layer    Maximum-Flux-Residual          L2-NORM 
          0                 1           2             4    7     1       0.5897546292E-01       4    7    1         0.3106477401E+01      0.6379840208E+01
          0                 2           2             4    7     1      -0.5736769540E-02       4    7    1        -0.3106521723E+00      0.6379835952E+00
          0                 3           2             4    7     1       0.3906521011E-03       4    7    1         0.2174561952E-01      0.4465860777E-01
          0                 4           1             4    7     1      -0.1554441555E-04       4    7    1        -0.8893972797E-03      0.1826516979E-02

    ------------------------------------------------
       NWT REQUIRED            4 OUTER ITERATIONS 
       AND A TOTAL OF          7 INNER ITERATIONS.
    ------------------------------------------------

 NO OUTPUT CONTROL FOR STRESS PERIOD   23   TIME STEP   20
 
 SOLVING FOR HEAD 
                                                   Max.-Head-Change                         Max.-Flux-Residual
  Residual-Control   Outer-Iter.   Inner-Iter.     Column Row Layer    Maximum-Head-Change  Column Row Layer    Maximum-Flux-Residual          L2-NORM 
          0                 1           2             4    7     1       0.5817019857E-01       4    7    1         0.3064233576E+01      0.6284167053E+01
          0                 2           2             4    7     1      -0.5658438212E-02       4    7    1        -0.3064277170E+00      0.6284164011E+00
          0                 3           2             4    7     1       0.3853180378E-03       4    7    1         0.2144990820E-01      0.4398892549E-01
          0                 4           1             4    7     1      -0.1533216791E-04       4    7    1        -0.8773026454E-03      0.1799146777E-02

    ------------------------------------------------
       NWT REQUIRED            4 OUTER ITERATIONS 
       AND A TOTAL OF          7 INNER ITERATIONS.
    ------------------------------------------------

 NO OUTPUT CONTROL FOR STRESS PERIOD   23   TIME STEP   21
 
 SOLVING FOR HEAD 
                                                   Max.-Head-Change                         Max.-Flux-Residual
  Residual-Control   Outer-Iter.   Inner-Iter.     Column Row Layer    Maximum-Head-Change  Column Row Layer    Maximum-Flux-Residual          L2-NORM 
          0                 1           2             4    7     1       0.5737295955E-01       4    7    1         0.3022387376E+01      0.6190967384E+01
          0                 2           2             4    7     1      -0.5580887495E-02       4    7    1        -0.3022430219E+00      0.6190965485E+00
          0                 3           2             4    7     1       0.3800371326E-03       4    7    1         0.2115698013E-01      0.4333653996E-01
          0                 4           1             4    7     1      -0.1512203587E-04       4    7    1        -0.8653218838E-03      0.1772460798E-02

    ------------------------------------------------
       NWT REQUIRED            4 OUTER ITERATIONS 
       AND A TOTAL OF          7 INNER ITERATIONS.
    ------------------------------------------------

 NO OUTPUT CONTROL FOR STRESS PERIOD   23   TIME STEP   22
 
 SOLVING FOR HEAD 
                                                   Max.-Head-Change                         Max.-Flux-Residual
  Residual-Control   Outer-Iter.   Inner-Iter.     Column Row Layer    Maximum-Head-Change  Column Row Layer    Maximum-Flux-Residual          L2-NORM 
          0                 1           2             4    7     1       0.5658433100E-01       4    7    1         0.2980971818E+01      0.6100144415E+01
          0                 2           2             4    7     1      -0.5504174316E-02       4    7    1        -0.2981013891E+00      0.6100143535E+00
          0                 3           2             4    7     1       0.3748132607E-03       4    7    1         0.2086706644E-01      0.4270079609E-01
          0                 4           1             4    7     1      -0.1491417333E-04       4    7    1        -0.8534643989E-03      0.1746452437E-02

    ------------------------------------------------
       NWT REQUIRED            4 OUTER ITERATIONS 
       AND A TOTAL OF          7 INNER ITERATIONS.
    ------------------------------------------------

 NO OUTPUT CONTROL FOR STRESS PERIOD   23   TIME STEP   23
 
 SOLVING FOR HEAD 
                                                   Max.-Head-Change                         Max.-Flux-Residual
  Residual-Control   Outer-Iter.   Inner-Iter.     Column Row Layer    Maximum-Head-Change  Column Row Layer    Maximum-Flux-Residual          L2-NORM 
          0                 1           2             4    7     1       0.5580431414E-01       4    7    1         0.2939988109E+01      0.6011610399E+01
          0                 2           2             4    7     1      -0.5428298797E-02       4    7    1        -0.2940029398E+00      0.6011610165E+00
          0                 3           2             4    7     1       0.3696464303E-03       4    7    1         0.2058017562E-01      0.4208106303E-01
          0                 4           1             4    7     1      -0.1470858007E-04       4    7    1        -0.8417305301E-03      0.1721099279E-02

    ------------------------------------------------
       NWT REQUIRED            4 OUTER ITERATIONS 
       AND A TOTAL OF          7 INNER ITERATIONS.
    ------------------------------------------------

 NO OUTPUT CONTROL FOR STRESS PERIOD   23   TIME STEP   24
 
 SOLVING FOR HEAD 
                                                   Max.-Head-Change                         Max.-Flux-Residual
  Residual-Control   Outer-Iter.   Inner-Iter.     Column Row Layer    Maximum-Head-Change  Column Row Layer    Maximum-Flux-Residual          L2-NORM 
          0                 1           2             4    7     1       0.5503342079E-01       4    7    1         0.2899465449E+01      0.5925275604E+01
          0                 2           2             4    7     1      -0.5353310729E-02       4    7    1        -0.2899505941E+00      0.5925275965E+00
          0                 3           2             4    7     1       0.3645400322E-03       4    7    1         0.2029651205E-01      0.4147673717E-01
          0                 4           1             4    7     1      -0.1450539183E-04       4    7    1        -0.8301286771E-03      0.1696392803E-02

    ------------------------------------------------
       NWT REQUIRED            4 OUTER ITERATIONS 
       AND A TOTAL OF          7 INNER ITERATIONS.
    ------------------------------------------------

 NO OUTPUT CONTROL FOR STRESS PERIOD   23   TIME STEP   25
 
 SOLVING FOR HEAD 
                                                   Max.-Head-Change                         Max.-Flux-Residual
  Residual-Control   Outer-Iter.   Inner-Iter.     Column Row Layer    Maximum-Head-Change  Column Row Layer    Maximum-Flux-Residual          L2-NORM 
          0                 1           2             4    7     1       0.5427184609E-01       4    7    1         0.2859415806E+01      0.5841050332E+01
          0                 2           2             4    7     1      -0.5279229102E-02       4    7    1        -0.2859455497E+00      0.5841051198E+00
          0                 3           2             4    7     1       0.3594953592E-03       4    7    1         0.2001615955E-01      0.4088716373E-01
          0                 4           1             4    7     1      -0.1430465926E-04       4    7    1        -0.8186622433E-03      0.1672260168E-02

    ------------------------------------------------
       NWT REQUIRED            4 OUTER ITERATIONS 
       AND A TOTAL OF          7 INNER ITERATIONS.
    ------------------------------------------------

 NO OUTPUT CONTROL FOR STRESS PERIOD   23   TIME STEP   26
 
 SOLVING FOR HEAD 
                                                   Max.-Head-Change                         Max.-Flux-Residual
  Residual-Control   Outer-Iter.   Inner-Iter.     Column Row Layer    Maximum-Head-Change  Column Row Layer    Maximum-Flux-Residual          L2-NORM 
          0                 1           2             4    7     1       0.5351976139E-01       4    7    1         0.2819849302E+01      0.5758870927E+01
          0                 2           2             4    7     1      -0.5206070585E-02       4    7    1        -0.2819888185E+00      0.5758872294E+00
          0                 3           2             4    7     1       0.3545135474E-03       4    7    1         0.1973918904E-01      0.4031193419E-01
          0                 4           1             4    7     1      -0.1410642841E-04       4    7    1        -0.8073341232E-03      0.1648755391E-02

    ------------------------------------------------
       NWT REQUIRED            4 OUTER ITERATIONS 
       AND A TOTAL OF          7 INNER ITERATIONS.
    ------------------------------------------------

 NO OUTPUT CONTROL FOR STRESS PERIOD   23   TIME STEP   27
 
 SOLVING FOR HEAD 
                                                   Max.-Head-Change                         Max.-Flux-Residual
  Residual-Control   Outer-Iter.   Inner-Iter.     Column Row Layer    Maximum-Head-Change  Column Row Layer    Maximum-Flux-Residual          L2-NORM 
          0                 1           2             4    7     1       0.5277717250E-01       4    7    1         0.2780767531E+01      0.5678645502E+01
          0                 2           2             4    7     1      -0.5133835747E-02       4    7    1        -0.2780805603E+00      0.5678647273E+00
          0                 3           2             4    7     1       0.3495946343E-03       4    7    1         0.1946561161E-01      0.3975036737E-01
          0                 4           1             4    7     1      -0.1391070021E-04       4    7    1        -0.7961447895E-03      0.1625787875E-02

    ------------------------------------------------
       NWT REQUIRED            4 OUTER ITERATIONS 
       AND A TOTAL OF          7 INNER ITERATIONS.
    ------------------------------------------------

 NO OUTPUT CONTROL FOR STRESS PERIOD   23   TIME STEP   28
 
 SOLVING FOR HEAD 
                                                   Max.-Head-Change                         Max.-Flux-Residual
  Residual-Control   Outer-Iter.   Inner-Iter.     Column Row Layer    Maximum-Head-Change  Column Row Layer    Maximum-Flux-Residual          L2-NORM 
          0                 1           2             4    7     1       0.5204432694E-01       4    7    1         0.2742185370E+01      0.5600295343E+01
          0                 2           2             4    7     1      -0.5062548669E-02       4    7    1        -0.2742222632E+00      0.5600297177E+00
          0                 3           2             4    7     1       0.3447402602E-03       4    7    1         0.1919553145E-01      0.3920191521E-01
          0                 4           1             4    7     1      -0.1371754027E-04       4    7    1        -0.7850985055E-03      0.1603352942E-02

    ------------------------------------------------
       NWT REQUIRED            4 OUTER ITERATIONS 
       AND A TOTAL OF          7 INNER ITERATIONS.
    ------------------------------------------------

 NO OUTPUT CONTROL FOR STRESS PERIOD   23   TIME STEP   29
 
 SOLVING FOR HEAD 
                                                   Max.-Head-Change                         Max.-Flux-Residual
  Residual-Control   Outer-Iter.   Inner-Iter.     Column Row Layer    Maximum-Head-Change  Column Row Layer    Maximum-Flux-Residual          L2-NORM 
          0                 1           2             4    7     1       0.5132131508E-01       4    7    1         0.2704108368E+01      0.5523774521E+01
          0                 2           2             4    7     1      -0.4992218144E-02       4    7    1        -0.2704144821E+00      0.5523776602E+00
          0                 3           2             4    7     1       0.3399510238E-03       4    7    1         0.1892898743E-01      0.3866626102E-01
          0                 4           1             4    7     1      -0.1352697209E-04       4    7    1        -0.7741968384E-03      0.1581437945E-02

    ------------------------------------------------
       NWT REQUIRED            4 OUTER ITERATIONS 
       AND A TOTAL OF          7 INNER ITERATIONS.
    ------------------------------------------------

 NO OUTPUT CONTROL FOR STRESS PERIOD   23   TIME STEP   30



 STREAM LISTING     PERIOD     23   STEP       30

 LAYER ROW COL. STREAM  RCH.  FLOW INTO     FLOW TO   FLOW OUT OF   OVRLND.     DIRECT     STREAM       STREAM     STREAM     STREAM   STREAMBED  STREAMBED
                SEG.NO.  NO.  STRM. RCH.    AQUIFER    STRM. RCH.    RUNOFF     PRECIP       ET          HEAD       DEPTH      WIDTH   CONDCTNC.   GRADIENT

   1    1    1     1     1    2.2000E+01  2.3088E-01   2.1769E+01  0.000E+00  0.000E+00  0.000E+00  1.09418E+03  1.132E+00  1.242E+01  5.588E-02  1.377E+00
   1    2    2     1     2    2.1769E+01  3.5689E-01   2.1413E+01  0.000E+00  0.000E+00  0.000E+00  1.08919E+03  1.127E+00  1.235E+01  8.648E-02  1.376E+00
   1    3    3     1     3    2.1413E+01  3.0372E-01   2.1109E+01  0.000E+00  0.000E+00  0.000E+00  1.08354E+03  1.121E+00  1.228E+01  7.369E-02  1.374E+00
   1    3    4     1     4    2.1109E+01  2.7914E-01   2.0830E+01  0.000E+00  0.000E+00  0.000E+00  1.07852E+03  1.117E+00  1.222E+01  6.781E-02  1.372E+00
   1    4    5     2     1    1.8830E+01  3.1306E-01   1.8517E+01  0.000E+00  0.000E+00  0.000E+00  1.07295E+03  1.014E+00  1.200E+01  7.800E-02  1.338E+00
   1    5    6     2     2    1.8517E+01  2.4027E-01   1.8276E+01  0.000E+00  0.000E+00  0.000E+00  1.06751E+03  1.005E+00  1.200E+01  6.000E-02  1.335E+00
   1    6    6     2     3    1.8276E+01  2.3980E-01   1.8037E+01  0.000E+00  0.000E+00  0.000E+00  1.06279E+03  9.967E-01  1.200E+01  6.000E-02  1.332E+00
   1    7    6     2     4    1.8037E+01  2.3933E-01   1.7797E+01  0.000E+00  0.000E+00  0.000E+00  1.05806E+03  9.888E-01  1.200E+01  6.000E-02  1.330E+00
   1    8    6     2     5    1.7797E+01  2.3885E-01   1.7558E+01  0.000E+00  0.000E+00  0.000E+00  1.05334E+03  9.808E-01  1.200E+01  6.000E-02  1.327E+00
   1    3    5     3     1    2.0000E+00  2.8252E-01   1.7175E+00  0.000E+00  0.000E+00  0.000E+00  1.07555E+03  1.909E+00  9.636E+00  7.227E-02  1.955E+00
   1    3    6     3     2    1.7175E+00  2.4905E-01   1.4684E+00  0.000E+00  0.000E+00  0.000E+00  1.07264E+03  1.727E+00  8.909E+00  6.682E-02  1.864E+00
   1    3    7     3     3    1.4684E+00  1.9718E-01   1.2712E+00  0.000E+00  0.000E+00  0.000E+00  1.06987E+03  1.555E+00  8.218E+00  5.547E-02  1.777E+00
   1    4    8     3     4    1.2712E+00  2.2567E-01   1.0456E+00  0.000E+00  0.000E+00  0.000E+00  1.06682E+03  1.364E+00  7.455E+00  6.709E-02  1.682E+00
   1    5    8     3     5    1.0456E+00  1.5790E-01   8.8768E-01  0.000E+00  0.000E+00  0.000E+00  1.06362E+03  1.164E+00  6.655E+00  4.991E-02  1.582E+00
   1    6    8     3     6    8.8768E-01  5.5980E-02   8.3170E-01  0.000E+00  0.000E+00  0.000E+00  1.06158E+03  1.036E+00  6.145E+00  1.844E-02  1.518E+00
   1    5   10     4     1    1.0000E+01  9.0919E-02   9.9091E+00  0.000E+00  0.000E+00  0.000E+00  1.07836E+03  6.368E-01  1.000E+01  2.500E-02  1.212E+00
   1    5    9     4     2    9.9091E+00  1.8158E-01   9.7275E+00  0.000E+00  0.000E+00  0.000E+00  1.07154E+03  6.315E-01  1.000E+01  5.000E-02  1.211E+00
   1    6    8     4     3    9.7275E+00  1.2689E-01   9.6006E+00  0.000E+00  0.000E+00  0.000E+00  1.06381E+03  6.256E-01  1.000E+01  3.500E-02  1.209E+00
   1    6    8     5     1    1.0432E+01  2.2686E-01   1.0205E+01  0.000E+00  0.000E+00  0.000E+00  1.05868E+03  6.790E-01  1.542E+01  6.166E-02  1.226E+00
   1    7    7     5     2    1.0205E+01  2.7894E-01   9.9265E+00  0.000E+00  0.000E+00  0.000E+00  1.05417E+03  6.732E-01  1.519E+01  7.594E-02  1.224E+00
   1    8    7     5     3    9.9265E+00  1.9221E-01   9.7343E+00  0.000E+00  0.000E+00  0.000E+00  1.04992E+03  6.676E-01  1.497E+01  5.241E-02  1.223E+00
   1    8    6     5     4    9.7343E+00  1.3577E-01   9.5985E+00  0.000E+00  0.000E+00  0.000E+00  1.04691E+03  6.637E-01  1.482E+01  3.706E-02  1.221E+00
   1    9    6     6     1    2.7157E+01  2.5677E-01   2.6900E+01  0.000E+00  0.000E+00  0.000E+00  1.04401E+03  1.280E+00  1.200E+01  6.000E-02  1.427E+00
   1   10    7     6     2    2.6900E+01  2.5634E-01   2.6644E+01  0.000E+00  0.000E+00  0.000E+00  1.03945E+03  1.272E+00  1.200E+01  6.000E-02  1.424E+00
   1   11    7     6     3    2.6644E+01  2.5590E-01   2.6388E+01  0.000E+00  0.000E+00  0.000E+00  1.03490E+03  1.265E+00  1.200E+01  6.000E-02  1.422E+00
   1   12    7     6     4    2.6388E+01  2.5546E-01   2.6132E+01  0.000E+00  0.000E+00  0.000E+00  1.03035E+03  1.258E+00  1.200E+01  6.000E-02  1.419E+00
   1   13    7     6     5    2.6132E+01  3.3924E-03   2.6129E+01  0.000E+00  0.000E+00  0.000E+00  1.02716E+03  1.254E+00  1.200E+01  2.400E-02  4.712E-02
   1   14    9     7     1    1.5000E+02  1.3351E+00   1.4866E+02  0.000E+00  0.000E+00  0.000E+00  1.03987E+03  2.288E+00  5.529E+01  5.593E-01  7.957E-01
   1   13    8     7     2    1.4866E+02  1.8432E+00   1.4682E+02  0.000E+00  0.000E+00  0.000E+00  1.03478E+03  2.279E+00  5.526E+01  6.148E-01  9.994E-01
   1   13    7     7     3    1.4682E+02  1.4900E+00   1.4533E+02  0.000E+00  0.000E+00  0.000E+00  1.02969E+03  2.270E+00  5.522E+01  5.584E-01  8.894E-01
   1   13    6     8     1    1.7146E+02  9.4936E-01   1.7051E+02  0.000E+00  0.000E+00  0.000E+00  1.02483E+03  2.959E+00  4.290E+01  4.372E-01  7.239E-01
   1   13    5     8     2    1.7051E+02  2.0448E-01   1.7031E+02  0.000E+00  0.000E+00  0.000E+00  1.01858E+03  2.955E+00  4.285E+01  4.366E-01  1.561E-01
   1   13    4     8     3    1.7031E+02 -2.3290E+00   1.7264E+02  0.000E+00  0.000E+00  0.000E+00  1.01234E+03  2.962E+00  4.295E+01  4.376E+00 -1.774E-01
   1   13    3     8     4    1.7264E+02 -3.6141E+00   1.7625E+02  0.000E+00  0.000E+00  0.000E+00  1.00611E+03  2.981E+00  4.322E+01  4.405E+00 -2.735E-01
   1   13    2     8     5    1.7625E+02 -2.5808E+00   1.7883E+02  0.000E+00  0.000E+00  0.000E+00  9.99876E+02  3.001E+00  4.351E+01  4.434E+00 -1.940E-01
   1   13    1     8     6    1.7883E+02 -1.9991E+00   1.8083E+02  0.000E+00  0.000E+00  0.000E+00  9.94890E+02  3.015E+00  4.372E+01  2.673E+00 -2.493E-01





UNSATURATED ZONE PACKAGE VOLUMETRIC BUDGET FOR  TIME STEP    30 STRESS PERIOD   23
  ------------------------------------------------------------------------------



     CUMULATIVE VOLUMES      L**3       RATES FOR THIS TIME STEP      L**3/T
     ------------------                 ------------------------

           IN:                                      IN:
           ---                                      ---
        INFILTRATION =  1052594899.7363          INFILTRATION =           4.4075

          OUT:                                     OUT:
          ----                                     ----
              UZF ET =   994666985.9989                UZF ET =           3.7800
        UZF RECHARGE =      797071.6500          UZF RECHARGE =       0.0000E+00

            IN - OUT =    57130842.0874              IN - OUT =           0.6275

          STORAGE:                                 STORAGE:
          --------                                 --------
      STORAGE CHANGE =    57132485.7195        STORAGE CHANGE =           0.6275

 PERCENT DISCREPANCY IS DIFFERENCE BETWEEN IN-OUT MINUS CHANGE IN STORAGE
 DIVIDED BY THE AVERAGE OF IN AND OUT TIMES 100

 PERCENT DISCREPANCY =          -0.00     PERCENT DISCREPANCY =           0.00






1
  VOLUMETRIC BUDGET FOR ENTIRE MODEL AT END OF TIME STEP   30, STRESS PERIOD  23
  ------------------------------------------------------------------------------

     CUMULATIVE VOLUMES      L**3       RATES FOR THIS TIME STEP      L**3/T
     ------------------                 ------------------------

           IN:                                      IN:
           ---                                      ---
               AG WELLS  =   797503936.0000                 AG WELLS  =           0.0000
      DIVERSION SEGMENTS =           0.0000        DIVERSION SEGMENTS =           0.0000
           GW IRRIGATION =           0.0000             GW IRRIGATION =           0.0000
           SW IRRIGATION =           0.0000             SW IRRIGATION =           0.0000
        SYSTEM LOSSES GW =           0.0000          SYSTEM LOSSES GW =           0.0000
        SYSTEM LOSSES SW =           0.0000          SYSTEM LOSSES SW =           0.0000

                TOTAL IN =   797503936.0000                  TOTAL IN =           0.0000

          OUT:                                     OUT:
          ----                                     ----
               AG WELLS  =           0.0000                 AG WELLS  =           0.0000
      DIVERSION SEGMENTS =           0.0000        DIVERSION SEGMENTS =           0.0000
           GW IRRIGATION =   797503936.0000             GW IRRIGATION =           0.0000
           SW IRRIGATION =           0.0000             SW IRRIGATION =           0.0000
        SYSTEM LOSSES GW =           0.0000          SYSTEM LOSSES GW =           0.0000
        SYSTEM LOSSES SW =           0.0000          SYSTEM LOSSES SW =           0.0000

               TOTAL OUT =   797503936.0000                 TOTAL OUT =           0.0000

                IN - OUT =           0.0000                  IN - OUT =           0.0000

     PERCENT DISCREPANCY =           0.00         PERCENT DISCREPANCY =           0.00



1
  VOLUMETRIC BUDGET FOR ENTIRE MODEL AT END OF TIME STEP   30, STRESS PERIOD  23
  ------------------------------------------------------------------------------

     CUMULATIVE VOLUMES      L**3       RATES FOR THIS TIME STEP      L**3/T
     ------------------                 ------------------------

           IN:                                      IN:
           ---                                      ---
             STORAGE     =  1029748992.0000               STORAGE     =          13.2965
       CONSTANT HEAD     =           0.0000         CONSTANT HEAD     =           0.0000
     HEAD DEP BOUNDS     =    16540440.0000       HEAD DEP BOUNDS     =           0.2857
      STREAM LEAKAGE     =   723205376.0000        STREAM LEAKAGE     =          11.6934
        UZF RECHARGE     =      797071.5625          UZF RECHARGE     =           0.0000
               GW ET     =           0.0000                 GW ET     =           0.0000
     SURFACE LEAKAGE     =           0.0000       SURFACE LEAKAGE     =           0.0000
           AG WELLS      =           0.0000             AG WELLS      =           0.0000

                TOTAL IN =  1770291840.0000                  TOTAL IN =          25.2756

          OUT:                                     OUT:
          ----                                     ----
             STORAGE     =   336659296.0000               STORAGE     =          14.4625
       CONSTANT HEAD     =           0.0000         CONSTANT HEAD     =           0.0000
     HEAD DEP BOUNDS     =    17061466.0000       HEAD DEP BOUNDS     =           0.2902
      STREAM LEAKAGE     =   601751616.0000        STREAM LEAKAGE     =          10.5229
        UZF RECHARGE     =           0.0000          UZF RECHARGE     =           0.0000
               GW ET     =    17319432.0000                 GW ET     =           0.0000
     SURFACE LEAKAGE     =           0.0000       SURFACE LEAKAGE     =           0.0000
           AG WELLS      =   797503936.0000             AG WELLS      =           0.0000

               TOTAL OUT =  1770295808.0000                 TOTAL OUT =          25.2756

                IN - OUT =       -3968.0000                  IN - OUT =       7.6294E-06

     PERCENT DISCREPANCY =          -0.00         PERCENT DISCREPANCY =           0.00






         TIME SUMMARY AT END OF TIME STEP   30 IN STRESS PERIOD   23
                    SECONDS     MINUTES      HOURS       DAYS        YEARS
                    -----------------------------------------------------------
   TIME STEP LENGTH  87667.      1461.1      24.352      1.0147     2.77799E-03
 STRESS PERIOD TIME 2.63000E+06  43833.      730.56      30.440     8.33397E-02
         TOTAL TIME 5.79467E+07 9.65778E+05  16096.      670.68      1.8362    
1
1
                            STRESS PERIOD NO.   24, LENGTH =   2630000.    
                            -----------------------------------------------

                              NUMBER OF TIME STEPS =    30

                               MULTIPLIER FOR DELT =     1.000

                            INITIAL TIME STEP SIZE =   87666.66    

 REUSING NON-PARAMETER GHB CELLS FROM LAST STRESS PERIOD

      2 GHB CELLS

 REUSING STREAM SEGMENT DATA FROM LAST STRESS PERIOD



            AREAL INFILTRATION RATE
 READING ON UNIT   19 WITH FORMAT: (10F4.0)            

            1           2           3           4           5           6           7           8           9          10
 ........................................................................................................................
   1   1.2000E-09   0.000       0.000       0.000       0.000       0.000       0.000       0.000       0.000       0.000    
   2   2.1000E-09  2.0000E-09  8.0000E-10  8.5000E-09   0.000       0.000       0.000       0.000       0.000       0.000    
   3   5.0000E-10  1.1000E-09  8.8000E-09  5.5000E-09   0.000       0.000       0.000       0.000       0.000       0.000    
   4   8.5000E-09  1.1000E-09  1.1000E-09  1.1000E-09  2.0000E-09   0.000       0.000       0.000       0.000       0.000    
   5   8.5000E-09  1.1000E-09  1.1000E-09  1.1000E-09  1.1000E-09   0.000       0.000       0.000       0.000       0.000    
   6   8.5000E-09  5.2000E-09  2.1000E-09  1.1000E-09  1.5000E-09   0.000       0.000       0.000       0.000       0.000    
   7   8.5000E-09  5.2000E-09  2.1000E-09  1.2000E-09  2.0000E-09   0.000       0.000       0.000       0.000       0.000    
   8   5.0000E-10  5.2000E-09  2.1000E-09  1.2000E-09  5.0000E-09   0.000       0.000       0.000       0.000       0.000    
   9   5.0000E-10  5.2000E-09  2.1000E-09  1.2000E-09  5.0000E-09   0.000       0.000       0.000       0.000       0.000    
  10   5.0000E-10  5.2000E-09  2.1000E-09  1.2000E-09  5.8000E-09   0.000       0.000       0.000       0.000       0.000    
  11   1.0000E-10  1.1000E-09  1.1000E-09  1.2000E-09  5.0000E-09   0.000       0.000       0.000       0.000       0.000    
  12   1.1000E-09  1.1000E-09  1.1000E-09  1.1000E-09  2.0000E-09   0.000       0.000       0.000       0.000       0.000    
  13   1.1000E-09  2.2000E-09  2.2000E-09  2.1000E-09  1.0000E-09   0.000       0.000       0.000       0.000       0.000    
  14   2.0000E-10  5.5000E-09  5.5000E-09  5.2000E-09  1.0000E-09   0.000       0.000       0.000       0.000       0.000    
  15    0.000      8.8000E-09  8.8000E-09   0.000       0.000       0.000       0.000       0.000       0.000       0.000    

                  ET RATE =  5.000000E-10

 USING ET EXTINCTION DEPTH FROM PREVIOUS STRESS PERIOD. CURRENT PERIOD IS:      24

 USING EXTINCTION WATER CONTENT FROM PREVIOUS STRESS PERIOD. CURRENT PERIOD IS:      24

 USING AIR ENTRY PRESSURE FROM PREVIOUS STRESS PERIOD. CURRENT PERIOD IS:      24

 USING ROOT PRESSURE HEAD FROM PREVIOUS STRESS PERIOD. CURRENT PERIOD IS:      24

 USING ROOT ACTIVITY FROM PREVIOUS STRESS PERIOD. CURRENT PERIOD IS:      24

 PROCESSING AG STRESS PERIOD DATA

 READING AG STRESS PERIOD DATA

 READING IRRIGATION WELL

 END PROCESSING AG STRESS PERIOD DATA OPTIONS
 
 SOLVING FOR HEAD 
                                                   Max.-Head-Change                         Max.-Flux-Residual
  Residual-Control   Outer-Iter.   Inner-Iter.     Column Row Layer    Maximum-Head-Change  Column Row Layer    Maximum-Flux-Residual          L2-NORM 
          0                 1           2             4    7     1       0.5060820337E-01       4    7    1         0.2666541208E+01      0.5449651432E+01
          0                 2           2             4    7     1      -0.4922850640E-02       4    7    1        -0.2666576856E+00      0.5449643765E+00
          0                 3           2             4    7     1       0.3352273653E-03       4    7    1         0.1866601232E-01      0.3814725937E-01
          0                 4           1             4    7     1      -0.1333901293E-04       4    7    1        -0.7634411268E-03      0.1560205994E-02

    ------------------------------------------------
       NWT REQUIRED            4 OUTER ITERATIONS 
       AND A TOTAL OF          7 INNER ITERATIONS.
    ------------------------------------------------

 NO OUTPUT CONTROL FOR STRESS PERIOD   24   TIME STEP    1
 
 SOLVING FOR HEAD 
                                                   Max.-Head-Change                         Max.-Flux-Residual
  Residual-Control   Outer-Iter.   Inner-Iter.     Column Row Layer    Maximum-Head-Change  Column Row Layer    Maximum-Flux-Residual          L2-NORM 
          0                 1           2             4    7     1       0.4990516387E-01       4    7    1         0.2629494629E+01      0.5377646095E+01
          0                 2           2             4    7     1      -0.4854462895E-02       4    7    1        -0.2629529478E+00      0.5377620759E+00
          0                 3           2             4    7     1       0.3305704251E-03       4    7    1         0.1840668132E-01      0.3764295139E-01
          0                 4           1             4    7     1      -0.1315370907E-04       4    7    1        -0.7528344747E-03      0.1539591094E-02

    ------------------------------------------------
       NWT REQUIRED            4 OUTER ITERATIONS 
       AND A TOTAL OF          7 INNER ITERATIONS.
    ------------------------------------------------

 NO OUTPUT CONTROL FOR STRESS PERIOD   24   TIME STEP    2
 
 SOLVING FOR HEAD 
                                                   Max.-Head-Change                         Max.-Flux-Residual
  Residual-Control   Outer-Iter.   Inner-Iter.     Column Row Layer    Maximum-Head-Change  Column Row Layer    Maximum-Flux-Residual          L2-NORM 
          0                 1           2             4    7     1       0.4921208565E-01       4    7    1         0.2592962970E+01      0.5306163051E+01
          0                 2           2             4    7     1      -0.4787044121E-02       4    7    1        -0.2592997026E+00      0.5306140345E+00
          0                 3           2             4    7     1       0.3259794678E-03       4    7    1         0.1815095481E-01      0.3714259080E-01
          0                 4           1             4    7     1      -0.1297103023E-04       4    7    1        -0.7423752334E-03      0.1519103684E-02

    ------------------------------------------------
       NWT REQUIRED            4 OUTER ITERATIONS 
       AND A TOTAL OF          7 INNER ITERATIONS.
    ------------------------------------------------

 NO OUTPUT CONTROL FOR STRESS PERIOD   24   TIME STEP    3
 
 SOLVING FOR HEAD 
                                                   Max.-Head-Change                         Max.-Flux-Residual
  Residual-Control   Outer-Iter.   Inner-Iter.     Column Row Layer    Maximum-Head-Change  Column Row Layer    Maximum-Flux-Residual          L2-NORM 
          0                 1           2             4    7     1       0.4852911125E-01       4    7    1         0.2556955064E+01      0.5236268827E+01
          0                 2           2             4    7     1      -0.4720608184E-02       4    7    1        -0.2556988335E+00      0.5236248244E+00
          0                 3           2             4    7     1       0.3214554379E-03       4    7    1         0.1789889459E-01      0.3665336803E-01
          0                 4           1             4    7     1      -0.1279101499E-04       4    7    1        -0.7320659565E-03      0.1499107914E-02

    ------------------------------------------------
       NWT REQUIRED            4 OUTER ITERATIONS 
       AND A TOTAL OF          7 INNER ITERATIONS.
    ------------------------------------------------

 NO OUTPUT CONTROL FOR STRESS PERIOD   24   TIME STEP    4
 
 SOLVING FOR HEAD 
                                                   Max.-Head-Change                         Max.-Flux-Residual
  Residual-Control   Outer-Iter.   Inner-Iter.     Column Row Layer    Maximum-Head-Change  Column Row Layer    Maximum-Flux-Residual          L2-NORM 
          0                 1           2             4    7     1       0.4785623216E-01       4    7    1         0.2521471008E+01      0.5167916798E+01
          0                 2           2             4    7     1      -0.4655154258E-02       4    7    1        -0.2521503504E+00      0.5167898293E+00
          0                 3           2             4    7     1       0.3169982791E-03       4    7    1         0.1765050140E-01      0.3617496407E-01
          0                 4           1             4    7     1      -0.1261366000E-04       4    7    1        -0.7219066417E-03      0.1479547203E-02

    ------------------------------------------------
       NWT REQUIRED            4 OUTER ITERATIONS 
       AND A TOTAL OF          7 INNER ITERATIONS.
    ------------------------------------------------

 NO OUTPUT CONTROL FOR STRESS PERIOD   24   TIME STEP    5
 
 SOLVING FOR HEAD 
                                                   Max.-Head-Change                         Max.-Flux-Residual
  Residual-Control   Outer-Iter.   Inner-Iter.     Column Row Layer    Maximum-Head-Change  Column Row Layer    Maximum-Flux-Residual          L2-NORM 
          0                 1           2             4    7     1       0.4719342039E-01       4    7    1         0.2486510365E+01      0.5101046676E+01
          0                 2           2             4    7     1      -0.4590679624E-02       4    7    1        -0.2486542095E+00      0.5101030110E+00
          0                 3           2             4    7     1       0.3126078068E-03       4    7    1         0.1740577216E-01      0.3570689807E-01
          0                 4           1             4    7     1      -0.1243895928E-04       4    7    1        -0.7118972123E-03      0.1460386429E-02

    ------------------------------------------------
       NWT REQUIRED            4 OUTER ITERATIONS 
       AND A TOTAL OF          7 INNER ITERATIONS.
    ------------------------------------------------

 NO OUTPUT CONTROL FOR STRESS PERIOD   24   TIME STEP    6
 
 SOLVING FOR HEAD 
                                                   Max.-Head-Change                         Max.-Flux-Residual
  Residual-Control   Outer-Iter.   Inner-Iter.     Column Row Layer    Maximum-Head-Change  Column Row Layer    Maximum-Flux-Residual          L2-NORM 
          0                 1           2             4    7     1       0.4654064149E-01       4    7    1         0.2452071681E+01      0.5035620170E+01
          0                 2           2             4    7     1      -0.4527180892E-02       4    7    1        -0.2452102657E+00      0.5035381075E+00
          0                 3           2             4    7     1       0.3082837896E-03       4    7    1         0.1716469671E-01      0.3524764297E-01
          0                 4           1             4    7     1      -0.1226690246E-04       4    7    1        -0.7020372068E-03      0.1441605666E-02

    ------------------------------------------------
       NWT REQUIRED            4 OUTER ITERATIONS 
       AND A TOTAL OF          7 INNER ITERATIONS.
    ------------------------------------------------

 NO OUTPUT CONTROL FOR STRESS PERIOD   24   TIME STEP    7
 
 SOLVING FOR HEAD 
                                                   Max.-Head-Change                         Max.-Flux-Residual
  Residual-Control   Outer-Iter.   Inner-Iter.     Column Row Layer    Maximum-Head-Change  Column Row Layer    Maximum-Flux-Residual          L2-NORM 
          0                 1           2             4    7     1       0.4589784154E-01       4    7    1         0.2418153174E+01      0.4971603713E+01
          0                 2           2             4    7     1      -0.4464652658E-02       4    7    1        -0.2418183406E+00      0.4971419859E+00
          0                 3           2             4    7     1       0.3040258594E-03       4    7    1         0.1692726256E-01      0.3479965053E-01
          0                 4           1             4    7     1      -0.1209747550E-04       4    7    1        -0.6923261387E-03      0.1423285046E-02

    ------------------------------------------------
       NWT REQUIRED            4 OUTER ITERATIONS 
       AND A TOTAL OF          7 INNER ITERATIONS.
    ------------------------------------------------

 NO OUTPUT CONTROL FOR STRESS PERIOD   24   TIME STEP    8
 
 SOLVING FOR HEAD 
                                                   Max.-Head-Change                         Max.-Flux-Residual
  Residual-Control   Outer-Iter.   Inner-Iter.     Column Row Layer    Maximum-Head-Change  Column Row Layer    Maximum-Flux-Residual          L2-NORM 
          0                 1           2             4    7     1       0.4526509612E-01       4    7    1         0.2384759353E+01      0.4908954618E+01
          0                 2           2             4    7     1      -0.4403102982E-02       4    7    1        -0.2384788853E+00      0.4908942513E+00
          0                 3           2             4    7     1       0.2998345648E-03       4    7    1         0.1669350126E-01      0.3436233485E-01
          0                 4           1             4    7     1      -0.1193069994E-04       4    7    1        -0.6827652810E-03      0.1405409910E-02

    ------------------------------------------------
       NWT REQUIRED            4 OUTER ITERATIONS 
       AND A TOTAL OF          7 INNER ITERATIONS.
    ------------------------------------------------

 NO OUTPUT CONTROL FOR STRESS PERIOD   24   TIME STEP    9
 
 SOLVING FOR HEAD 
                                                   Max.-Head-Change                         Max.-Flux-Residual
  Residual-Control   Outer-Iter.   Inner-Iter.     Column Row Layer    Maximum-Head-Change  Column Row Layer    Maximum-Flux-Residual          L2-NORM 
          0                 1           2             4    7     1       0.4464219792E-01       4    7    1         0.2351879507E+01      0.4847660425E+01
          0                 2           2             4    7     1      -0.4342510918E-02       4    7    1        -0.2351908288E+00      0.4847649259E+00
          0                 3           2             4    7     1       0.2957084802E-03       4    7    1         0.1646333790E-01      0.3393328724E-01
          0                 4           1             4    7     1      -0.1176651923E-04       4    7    1        -0.6733515804E-03      0.1387852804E-02

    ------------------------------------------------
       NWT REQUIRED            4 OUTER ITERATIONS 
       AND A TOTAL OF          7 INNER ITERATIONS.
    ------------------------------------------------

 NO OUTPUT CONTROL FOR STRESS PERIOD   24   TIME STEP   10
 
 SOLVING FOR HEAD 
                                                   Max.-Head-Change                         Max.-Flux-Residual
  Residual-Control   Outer-Iter.   Inner-Iter.     Column Row Layer    Maximum-Head-Change  Column Row Layer    Maximum-Flux-Residual          L2-NORM 
          0                 1           2             4    7     1       0.4402920290E-01       4    7    1         0.2319517523E+01      0.4787637113E+01
          0                 2           2             4    7     1      -0.4282882181E-02       4    7    1        -0.2319545598E+00      0.4787626661E+00
          0                 3           2             4    7     1       0.2916479945E-03       4    7    1         0.1623679963E-01      0.3351313298E-01
          0                 4           1             4    7     1      -0.1160494881E-04       4    7    1        -0.6640861609E-03      0.1370675156E-02

    ------------------------------------------------
       NWT REQUIRED            4 OUTER ITERATIONS 
       AND A TOTAL OF          7 INNER ITERATIONS.
    ------------------------------------------------

 NO OUTPUT CONTROL FOR STRESS PERIOD   24   TIME STEP   11
 
 SOLVING FOR HEAD 
                                                   Max.-Head-Change                         Max.-Flux-Residual
  Residual-Control   Outer-Iter.   Inner-Iter.     Column Row Layer    Maximum-Head-Change  Column Row Layer    Maximum-Flux-Residual          L2-NORM 
          0                 1           2             4    7     1       0.4342601736E-01       4    7    1         0.2287668992E+01      0.4728846903E+01
          0                 2           2             4    7     1      -0.4224207659E-02       4    7    1        -0.2287696374E+00      0.4728837315E+00
          0                 3           2             4    7     1       0.2876524870E-03       4    7    1         0.1601385563E-01      0.3310161395E-01
          0                 4           1             4    7     1      -0.1144596358E-04       4    7    1        -0.6549677241E-03      0.1353844877E-02

    ------------------------------------------------
       NWT REQUIRED            4 OUTER ITERATIONS 
       AND A TOTAL OF          7 INNER ITERATIONS.
    ------------------------------------------------

 NO OUTPUT CONTROL FOR STRESS PERIOD   24   TIME STEP   12
 
 SOLVING FOR HEAD 
                                                   Max.-Head-Change                         Max.-Flux-Residual
  Residual-Control   Outer-Iter.   Inner-Iter.     Column Row Layer    Maximum-Head-Change  Column Row Layer    Maximum-Flux-Residual          L2-NORM 
          0                 1           2             4    7     1       0.4283240691E-01       4    7    1         0.2256321756E+01      0.4671240327E+01
          0                 2           2             4    7     1      -0.4166464551E-02       4    7    1        -0.2256348459E+00      0.4671232995E+00
          0                 3           2             4    7     1       0.2837204051E-03       4    7    1         0.1579442076E-01      0.3269842943E-01
          0                 4           1             4    7     1      -0.1128950218E-04       4    7    1        -0.6459928213E-03      0.1337366344E-02

    ------------------------------------------------
       NWT REQUIRED            4 OUTER ITERATIONS 
       AND A TOTAL OF          7 INNER ITERATIONS.
    ------------------------------------------------

 NO OUTPUT CONTROL FOR STRESS PERIOD   24   TIME STEP   13
 
 SOLVING FOR HEAD 
                                                   Max.-Head-Change                         Max.-Flux-Residual
  Residual-Control   Outer-Iter.   Inner-Iter.     Column Row Layer    Maximum-Head-Change  Column Row Layer    Maximum-Flux-Residual          L2-NORM 
          0                 1           2             4    7     1       0.4224854284E-01       4    7    1         0.2225485562E+01      0.4614800899E+01
          0                 2           2             4    7     1      -0.4109669521E-02       4    7    1        -0.2225511599E+00      0.4614792743E+00
          0                 3           2             4    7     1       0.2798528840E-03       4    7    1         0.1557856329E-01      0.3230322051E-01
          0                 4           1             4    7     1      -0.1113561008E-04       4    7    1        -0.6371642512E-03      0.1321195047E-02

    ------------------------------------------------
       NWT REQUIRED            4 OUTER ITERATIONS 
       AND A TOTAL OF          7 INNER ITERATIONS.
    ------------------------------------------------

 NO OUTPUT CONTROL FOR STRESS PERIOD   24   TIME STEP   14
 
 SOLVING FOR HEAD 
                                                   Max.-Head-Change                         Max.-Flux-Residual
  Residual-Control   Outer-Iter.   Inner-Iter.     Column Row Layer    Maximum-Head-Change  Column Row Layer    Maximum-Flux-Residual          L2-NORM 
          0                 1           2             4    7     1       0.4167431166E-01       4    7    1         0.2195154693E+01      0.4559492635E+01
          0                 2           2             4    7     1      -0.4053811528E-02       4    7    1        -0.2195180078E+00      0.4559484597E+00
          0                 3           2             4    7     1       0.2760491710E-03       4    7    1         0.1536624316E-01      0.3191617595E-01
          0                 4           1             4    7     1      -0.1098425677E-04       4    7    1        -0.6284803385E-03      0.1305367213E-02

    ------------------------------------------------
       NWT REQUIRED            4 OUTER ITERATIONS 
       AND A TOTAL OF          7 INNER ITERATIONS.
    ------------------------------------------------

 NO OUTPUT CONTROL FOR STRESS PERIOD   24   TIME STEP   15
 
 SOLVING FOR HEAD 
                                                   Max.-Head-Change                         Max.-Flux-Residual
  Residual-Control   Outer-Iter.   Inner-Iter.     Column Row Layer    Maximum-Head-Change  Column Row Layer    Maximum-Flux-Residual          L2-NORM 
          0                 1           2             4    7     1       0.4110931828E-01       4    7    1         0.2165308662E+01      0.4505268010E+01
          0                 2           2             4    7     1      -0.3998852141E-02       4    7    1        -0.2165333409E+00      0.4505260494E+00
          0                 3           2             4    7     1       0.2723066498E-03       4    7    1         0.1515731701E-01      0.3153662958E-01
          0                 4           1             4    7     1      -0.1083533795E-04       4    7    1        -0.6199352372E-03      0.1289844202E-02

    ------------------------------------------------
       NWT REQUIRED            4 OUTER ITERATIONS 
       AND A TOTAL OF          7 INNER ITERATIONS.
    ------------------------------------------------

 NO OUTPUT CONTROL FOR STRESS PERIOD   24   TIME STEP   16
 
 SOLVING FOR HEAD 
                                                   Max.-Head-Change                         Max.-Flux-Residual
  Residual-Control   Outer-Iter.   Inner-Iter.     Column Row Layer    Maximum-Head-Change  Column Row Layer    Maximum-Flux-Residual          L2-NORM 
          0                 1           2             4    7     1       0.4055385303E-01       4    7    1         0.2135963491E+01      0.4452107031E+01
          0                 2           2             4    7     1      -0.3944819604E-02       4    7    1        -0.2135987614E+00      0.4452100025E+00
          0                 3           2             4    7     1       0.2686272431E-03       4    7    1         0.1495189693E-01      0.3116452162E-01
          0                 4           1             4    7     1      -0.1068893087E-04       4    7    1        -0.6115335441E-03      0.1274627432E-02

    ------------------------------------------------
       NWT REQUIRED            4 OUTER ITERATIONS 
       AND A TOTAL OF          7 INNER ITERATIONS.
    ------------------------------------------------

 NO OUTPUT CONTROL FOR STRESS PERIOD   24   TIME STEP   17
 
 SOLVING FOR HEAD 
                                                   Max.-Head-Change                         Max.-Flux-Residual
  Residual-Control   Outer-Iter.   Inner-Iter.     Column Row Layer    Maximum-Head-Change  Column Row Layer    Maximum-Flux-Residual          L2-NORM 
          0                 1           2             4    7     1       0.4000751731E-01       4    7    1         0.2107097726E+01      0.4399987109E+01
          0                 2           2             4    7     1      -0.3891675140E-02       4    7    1        -0.2107121239E+00      0.4399980159E+00
          0                 3           2             4    7     1       0.2650083111E-03       4    7    1         0.1474983280E-01      0.3079966871E-01
          0                 4           1             4    7     1      -0.1054493065E-04       4    7    1        -0.6032691163E-03      0.1259697761E-02

    ------------------------------------------------
       NWT REQUIRED            4 OUTER ITERATIONS 
       AND A TOTAL OF          7 INNER ITERATIONS.
    ------------------------------------------------

 NO OUTPUT CONTROL FOR STRESS PERIOD   24   TIME STEP   18
 
 SOLVING FOR HEAD 
                                                   Max.-Head-Change                         Max.-Flux-Residual
  Residual-Control   Outer-Iter.   Inner-Iter.     Column Row Layer    Maximum-Head-Change  Column Row Layer    Maximum-Flux-Residual          L2-NORM 
          0                 1           2             4    7     1       0.3947031119E-01       4    7    1         0.2078712606E+01      0.4348862774E+01
          0                 2           2             4    7     1      -0.3839418757E-02       4    7    1        -0.2078735523E+00      0.4348856221E+00
          0                 3           2             4    7     1       0.2614498535E-03       4    7    1         0.1455113326E-01      0.3044179711E-01
          0                 4           1             4    7     1      -0.1040333602E-04       4    7    1        -0.5951422850E-03      0.1245047463E-02

    ------------------------------------------------
       NWT REQUIRED            4 OUTER ITERATIONS 
       AND A TOTAL OF          7 INNER ITERATIONS.
    ------------------------------------------------

 NO OUTPUT CONTROL FOR STRESS PERIOD   24   TIME STEP   19
 
 SOLVING FOR HEAD 
                                                   Max.-Head-Change                         Max.-Flux-Residual
  Residual-Control   Outer-Iter.   Inner-Iter.     Column Row Layer    Maximum-Head-Change  Column Row Layer    Maximum-Flux-Residual          L2-NORM 
          0                 1           2             4    7     1       0.3894210800E-01       4    7    1         0.2050800833E+01      0.4298723819E+01
          0                 2           2             4    7     1      -0.3788038135E-02       4    7    1        -0.2050823168E+00      0.4298717370E+00
          0                 3           2             4    7     1       0.2579510321E-03       4    7    1         0.1435574724E-01      0.3009083802E-01
          0                 4           1             4    7     1      -0.1026411475E-04       4    7    1        -0.5871509850E-03      0.1230703880E-02

    ------------------------------------------------
       NWT REQUIRED            4 OUTER ITERATIONS 
       AND A TOTAL OF          7 INNER ITERATIONS.
    ------------------------------------------------

 NO OUTPUT CONTROL FOR STRESS PERIOD   24   TIME STEP   20
 
 SOLVING FOR HEAD 
                                                   Max.-Head-Change                         Max.-Flux-Residual
  Residual-Control   Outer-Iter.   Inner-Iter.     Column Row Layer    Maximum-Head-Change  Column Row Layer    Maximum-Flux-Residual          L2-NORM 
          0                 1           2             4    7     1       0.3842276894E-01       4    7    1         0.2023355840E+01      0.4249531364E+01
          0                 2           2             4    7     1      -0.3737519752E-02       4    7    1        -0.2023377607E+00      0.4249382115E+00
          0                 3           2             4    7     1       0.2545109255E-03       4    7    1         0.1416362876E-01      0.2974549000E-01
          0                 4           1             4    7     1      -0.1012722953E-04       4    7    1        -0.5792933262E-03      0.1216574241E-02

    ------------------------------------------------
       NWT REQUIRED            4 OUTER ITERATIONS 
       AND A TOTAL OF          7 INNER ITERATIONS.
    ------------------------------------------------

 NO OUTPUT CONTROL FOR STRESS PERIOD   24   TIME STEP   21
 
 SOLVING FOR HEAD 
                                                   Max.-Head-Change                         Max.-Flux-Residual
  Residual-Control   Outer-Iter.   Inner-Iter.     Column Row Layer    Maximum-Head-Change  Column Row Layer    Maximum-Flux-Residual          L2-NORM 
          0                 1           2             4    7     1       0.3791215567E-01       4    7    1         0.1996370431E+01      0.4201272982E+01
          0                 2           2             4    7     1      -0.3687850209E-02       4    7    1        -0.1996391643E+00      0.4201266780E+00
          0                 3           2             4    7     1       0.2511286217E-03       4    7    1         0.1397472747E-01      0.2940867755E-01
          0                 4           1             4    7     1      -0.9992644098E-05       4    7    1        -0.5715672412E-03      0.1202819377E-02

    ------------------------------------------------
       NWT REQUIRED            4 OUTER ITERATIONS 
       AND A TOTAL OF          7 INNER ITERATIONS.
    ------------------------------------------------

 NO OUTPUT CONTROL FOR STRESS PERIOD   24   TIME STEP   22
 
 SOLVING FOR HEAD 
                                                   Max.-Head-Change                         Max.-Flux-Residual
  Residual-Control   Outer-Iter.   Inner-Iter.     Column Row Layer    Maximum-Head-Change  Column Row Layer    Maximum-Flux-Residual          L2-NORM 
          0                 1           2             4    7     1       0.3741026610E-01       4    7    1         0.1969844736E+01      0.4153928563E+01
          0                 2           2             4    7     1      -0.3639029245E-02       4    7    1        -0.1969865408E+00      0.4153922433E+00
          0                 3           2             4    7     1       0.2478041027E-03       4    7    1         0.1378904426E-01      0.2907727999E-01
          0                 4           1             4    7     1      -0.9860358226E-05       4    7    1        -0.5639727701E-03      0.1189250387E-02

    ------------------------------------------------
       NWT REQUIRED            4 OUTER ITERATIONS 
       AND A TOTAL OF          7 INNER ITERATIONS.
    ------------------------------------------------

 NO OUTPUT CONTROL FOR STRESS PERIOD   24   TIME STEP   23
 
 SOLVING FOR HEAD 
                                                   Max.-Head-Change                         Max.-Flux-Residual
  Residual-Control   Outer-Iter.   Inner-Iter.     Column Row Layer    Maximum-Head-Change  Column Row Layer    Maximum-Flux-Residual          L2-NORM 
          0                 1           2             4    7     1       0.3691681782E-01       4    7    1         0.1943764041E+01      0.4107456733E+01
          0                 2           2             4    7     1      -0.3591029406E-02       4    7    1        -0.1943784184E+00      0.4107450730E+00
          0                 3           2             4    7     1       0.2445354994E-03       4    7    1         0.1360647610E-01      0.2875199827E-01
          0                 4           1             4    7     1      -0.9730297770E-05       4    7    1        -0.5565057440E-03      0.1175953804E-02

    ------------------------------------------------
       NWT REQUIRED            4 OUTER ITERATIONS 
       AND A TOTAL OF          7 INNER ITERATIONS.
    ------------------------------------------------

 NO OUTPUT CONTROL FOR STRESS PERIOD   24   TIME STEP   24
 
 SOLVING FOR HEAD 
                                                   Max.-Head-Change                         Max.-Flux-Residual
  Residual-Control   Outer-Iter.   Inner-Iter.     Column Row Layer    Maximum-Head-Change  Column Row Layer    Maximum-Flux-Residual          L2-NORM 
          0                 1           2             4    7     1       0.3643180583E-01       4    7    1         0.1918128312E+01      0.4061837756E+01
          0                 2           2             4    7     1      -0.3543850209E-02       4    7    1        -0.1918147940E+00      0.4061831927E+00
          0                 3           2             4    7     1       0.2413227784E-03       4    7    1         0.1342702281E-01      0.2843266985E-01
          0                 4           1             4    7     1      -0.9602460658E-05       4    7    1        -0.5491660870E-03      0.1162888027E-02

    ------------------------------------------------
       NWT REQUIRED            4 OUTER ITERATIONS 
       AND A TOTAL OF          7 INNER ITERATIONS.
    ------------------------------------------------

 NO OUTPUT CONTROL FOR STRESS PERIOD   24   TIME STEP   25
 
 SOLVING FOR HEAD 
                                                   Max.-Head-Change                         Max.-Flux-Residual
  Residual-Control   Outer-Iter.   Inner-Iter.     Column Row Layer    Maximum-Head-Change  Column Row Layer    Maximum-Flux-Residual          L2-NORM 
          0                 1           2             4    7     1       0.3595495072E-01       4    7    1         0.1892922678E+01      0.4017050602E+01
          0                 2           2             4    7     1      -0.3497464472E-02       4    7    1        -0.1892941804E+00      0.4017044823E+00
          0                 3           2             4    7     1       0.2381640891E-03       4    7    1         0.1325058027E-01      0.2811916904E-01
          0                 4           1             4    7     1      -0.9476773439E-05       4    7    1        -0.5419495783E-03      0.1150063463E-02

    ------------------------------------------------
       NWT REQUIRED            4 OUTER ITERATIONS 
       AND A TOTAL OF          7 INNER ITERATIONS.
    ------------------------------------------------

 NO OUTPUT CONTROL FOR STRESS PERIOD   24   TIME STEP   26
 
 SOLVING FOR HEAD 
                                                   Max.-Head-Change                         Max.-Flux-Residual
  Residual-Control   Outer-Iter.   Inner-Iter.     Column Row Layer    Maximum-Head-Change  Column Row Layer    Maximum-Flux-Residual          L2-NORM 
          0                 1           2             4    7     1       0.3548637991E-01       4    7    1         0.1868154574E+01      0.3973076207E+01
          0                 2           2             4    7     1      -0.3451884591E-02       4    7    1        -0.1868173212E+00      0.3973070304E+00
          0                 3           2             4    7     1       0.2350602750E-03       4    7    1         0.1307720050E-01      0.2781134115E-01
          0                 4           1             4    7     1      -0.9353269960E-05       4    7    1        -0.5348583411E-03      0.1137477833E-02

    ------------------------------------------------
       NWT REQUIRED            4 OUTER ITERATIONS 
       AND A TOTAL OF          7 INNER ITERATIONS.
    ------------------------------------------------

 NO OUTPUT CONTROL FOR STRESS PERIOD   24   TIME STEP   27
 
 SOLVING FOR HEAD 
                                                   Max.-Head-Change                         Max.-Flux-Residual
  Residual-Control   Outer-Iter.   Inner-Iter.     Column Row Layer    Maximum-Head-Change  Column Row Layer    Maximum-Flux-Residual          L2-NORM 
          0                 1           2             4    7     1       0.3502567588E-01       4    7    1         0.1843801377E+01      0.3929894797E+01
          0                 2           2             4    7     1      -0.3407069951E-02       4    7    1        -0.1843819538E+00      0.3929888656E+00
          0                 3           2             4    7     1       0.2320085711E-03       4    7    1         0.1290672516E-01      0.2750905654E-01
          0                 4           1             4    7     1      -0.9231839584E-05       4    7    1        -0.5278858862E-03      0.1125105381E-02

    ------------------------------------------------
       NWT REQUIRED            4 OUTER ITERATIONS 
       AND A TOTAL OF          7 INNER ITERATIONS.
    ------------------------------------------------

 NO OUTPUT CONTROL FOR STRESS PERIOD   24   TIME STEP   28
 
 SOLVING FOR HEAD 
                                                   Max.-Head-Change                         Max.-Flux-Residual
  Residual-Control   Outer-Iter.   Inner-Iter.     Column Row Layer    Maximum-Head-Change  Column Row Layer    Maximum-Flux-Residual          L2-NORM 
          0                 1           2             4    7     1       0.3457296687E-01       4    7    1         0.1819870671E+01      0.3887482778E+01
          0                 2           2             4    7     1      -0.3363033027E-02       4    7    1        -0.1819888368E+00      0.3887476652E+00
          0                 3           2             4    7     1       0.2290098263E-03       4    7    1         0.1273920733E-01      0.2721218216E-01
          0                 4           1             4    7     1      -0.9112516274E-05       4    7    1        -0.5210343820E-03      0.1112973779E-02

    ------------------------------------------------
       NWT REQUIRED            4 OUTER ITERATIONS 
       AND A TOTAL OF          7 INNER ITERATIONS.
    ------------------------------------------------

 NO OUTPUT CONTROL FOR STRESS PERIOD   24   TIME STEP   29
 
 SOLVING FOR HEAD 
                                                   Max.-Head-Change                         Max.-Flux-Residual
  Residual-Control   Outer-Iter.   Inner-Iter.     Column Row Layer    Maximum-Head-Change  Column Row Layer    Maximum-Flux-Residual          L2-NORM 
          0                 1           2             4    7     1       0.3412796642E-01       4    7    1         0.1796347180E+01      0.3845816127E+01
          0                 2           2             4    7     1      -0.3319745953E-02       4    7    1        -0.1796364426E+00      0.3845809941E+00
          0                 3           2             4    7     1       0.2260621435E-03       4    7    1         0.1257454009E-01      0.2692051182E-01
          0                 4           1             4    7     1      -0.8995225426E-05       4    7    1        -0.5142994869E-03      0.1101032316E-02

    ------------------------------------------------
       NWT REQUIRED            4 OUTER ITERATIONS 
       AND A TOTAL OF          7 INNER ITERATIONS.
    ------------------------------------------------

 NO OUTPUT CONTROL FOR STRESS PERIOD   24   TIME STEP   30



 STREAM LISTING     PERIOD     24   STEP       30

 LAYER ROW COL. STREAM  RCH.  FLOW INTO     FLOW TO   FLOW OUT OF   OVRLND.     DIRECT     STREAM       STREAM     STREAM     STREAM   STREAMBED  STREAMBED
                SEG.NO.  NO.  STRM. RCH.    AQUIFER    STRM. RCH.    RUNOFF     PRECIP       ET          HEAD       DEPTH      WIDTH   CONDCTNC.   GRADIENT

   1    1    1     1     1    2.1000E+01  2.2592E-01   2.0774E+01  0.000E+00  0.000E+00  0.000E+00  1.09416E+03  1.115E+00  1.220E+01  5.490E-02  1.372E+00
   1    2    2     1     2    2.0774E+01  3.4917E-01   2.0425E+01  0.000E+00  0.000E+00  0.000E+00  1.08917E+03  1.110E+00  1.214E+01  8.495E-02  1.370E+00
   1    3    3     1     3    2.0425E+01  2.9709E-01   2.0128E+01  0.000E+00  0.000E+00  0.000E+00  1.08352E+03  1.105E+00  1.206E+01  7.238E-02  1.368E+00
   1    3    4     1     4    2.0128E+01  2.7299E-01   1.9855E+01  0.000E+00  0.000E+00  0.000E+00  1.07851E+03  1.100E+00  1.200E+01  6.659E-02  1.367E+00
   1    4    5     2     1    1.7855E+01  3.1056E-01   1.7545E+01  0.000E+00  0.000E+00  0.000E+00  1.07292E+03  9.816E-01  1.200E+01  7.800E-02  1.327E+00
   1    5    6     2     2    1.7545E+01  2.3835E-01   1.7306E+01  0.000E+00  0.000E+00  0.000E+00  1.06748E+03  9.724E-01  1.200E+01  6.000E-02  1.324E+00
   1    6    6     2     3    1.7306E+01  2.3787E-01   1.7068E+01  0.000E+00  0.000E+00  0.000E+00  1.06276E+03  9.644E-01  1.200E+01  6.000E-02  1.321E+00
   1    7    6     2     4    1.7068E+01  2.3738E-01   1.6831E+01  0.000E+00  0.000E+00  0.000E+00  1.05803E+03  9.564E-01  1.200E+01  6.000E-02  1.319E+00
   1    8    6     2     5    1.6831E+01  2.3690E-01   1.6594E+01  0.000E+00  0.000E+00  0.000E+00  1.05331E+03  9.484E-01  1.200E+01  6.000E-02  1.316E+00
   1    3    5     3     1    2.0000E+00  2.8252E-01   1.7175E+00  0.000E+00  0.000E+00  0.000E+00  1.07555E+03  1.909E+00  9.636E+00  7.227E-02  1.955E+00
   1    3    6     3     2    1.7175E+00  2.4905E-01   1.4684E+00  0.000E+00  0.000E+00  0.000E+00  1.07264E+03  1.727E+00  8.909E+00  6.682E-02  1.864E+00
   1    3    7     3     3    1.4684E+00  1.9718E-01   1.2712E+00  0.000E+00  0.000E+00  0.000E+00  1.06987E+03  1.555E+00  8.218E+00  5.547E-02  1.777E+00
   1    4    8     3     4    1.2712E+00  2.2567E-01   1.0456E+00  0.000E+00  0.000E+00  0.000E+00  1.06682E+03  1.364E+00  7.455E+00  6.709E-02  1.682E+00
   1    5    8     3     5    1.0456E+00  1.5790E-01   8.8768E-01  0.000E+00  0.000E+00  0.000E+00  1.06362E+03  1.164E+00  6.655E+00  4.991E-02  1.582E+00
   1    6    8     3     6    8.8768E-01  5.5980E-02   8.3170E-01  0.000E+00  0.000E+00  0.000E+00  1.06158E+03  1.036E+00  6.145E+00  1.844E-02  1.518E+00
   1    5   10     4     1    1.0000E+01  9.0919E-02   9.9091E+00  0.000E+00  0.000E+00  0.000E+00  1.07836E+03  6.368E-01  1.000E+01  2.500E-02  1.212E+00
   1    5    9     4     2    9.9091E+00  1.8158E-01   9.7275E+00  0.000E+00  0.000E+00  0.000E+00  1.07154E+03  6.315E-01  1.000E+01  5.000E-02  1.211E+00
   1    6    8     4     3    9.7275E+00  1.2689E-01   9.6006E+00  0.000E+00  0.000E+00  0.000E+00  1.06381E+03  6.256E-01  1.000E+01  3.500E-02  1.209E+00
   1    6    8     5     1    1.0432E+01  2.2686E-01   1.0205E+01  0.000E+00  0.000E+00  0.000E+00  1.05868E+03  6.790E-01  1.542E+01  6.166E-02  1.226E+00
   1    7    7     5     2    1.0205E+01  2.7894E-01   9.9265E+00  0.000E+00  0.000E+00  0.000E+00  1.05417E+03  6.732E-01  1.519E+01  7.594E-02  1.224E+00
   1    8    7     5     3    9.9265E+00  1.9221E-01   9.7343E+00  0.000E+00  0.000E+00  0.000E+00  1.04992E+03  6.676E-01  1.497E+01  5.241E-02  1.223E+00
   1    8    6     5     4    9.7343E+00  1.3577E-01   9.5985E+00  0.000E+00  0.000E+00  0.000E+00  1.04691E+03  6.637E-01  1.482E+01  3.706E-02  1.221E+00
   1    9    6     6     1    2.6193E+01  2.5512E-01   2.5938E+01  0.000E+00  0.000E+00  0.000E+00  1.04398E+03  1.252E+00  1.200E+01  6.000E-02  1.417E+00
   1   10    7     6     2    2.5938E+01  2.5468E-01   2.5683E+01  0.000E+00  0.000E+00  0.000E+00  1.03943E+03  1.245E+00  1.200E+01  6.000E-02  1.415E+00
   1   11    7     6     3    2.5683E+01  2.5424E-01   2.5429E+01  0.000E+00  0.000E+00  0.000E+00  1.03487E+03  1.237E+00  1.200E+01  6.000E-02  1.412E+00
   1   12    7     6     4    2.5429E+01  2.5379E-01   2.5175E+01  0.000E+00  0.000E+00  0.000E+00  1.03032E+03  1.230E+00  1.200E+01  6.000E-02  1.410E+00
   1   13    7     6     5    2.5175E+01  3.3670E-03   2.5171E+01  0.000E+00  0.000E+00  0.000E+00  1.02714E+03  1.226E+00  1.200E+01  2.400E-02  4.676E-02
   1   14    9     7     1    1.5000E+02  1.3362E+00   1.4866E+02  0.000E+00  0.000E+00  0.000E+00  1.03987E+03  2.288E+00  5.529E+01  5.593E-01  7.963E-01
   1   13    8     7     2    1.4866E+02  1.8493E+00   1.4681E+02  0.000E+00  0.000E+00  0.000E+00  1.03478E+03  2.279E+00  5.526E+01  6.148E-01  1.003E+00
   1   13    7     7     3    1.4681E+02  1.5049E+00   1.4531E+02  0.000E+00  0.000E+00  0.000E+00  1.02969E+03  2.270E+00  5.522E+01  5.584E-01  8.982E-01
   1   13    6     8     1    1.7048E+02  9.6272E-01   1.6952E+02  0.000E+00  0.000E+00  0.000E+00  1.02483E+03  2.952E+00  4.281E+01  4.362E-01  7.357E-01
   1   13    5     8     2    1.6952E+02  2.2027E-01   1.6930E+02  0.000E+00  0.000E+00  0.000E+00  1.01857E+03  2.948E+00  4.275E+01  4.356E-01  1.685E-01
   1   13    4     8     3    1.6930E+02 -2.2704E+00   1.7157E+02  0.000E+00  0.000E+00  0.000E+00  1.01233E+03  2.955E+00  4.285E+01  4.366E+00 -1.733E-01
   1   13    3     8     4    1.7157E+02 -3.5852E+00   1.7515E+02  0.000E+00  0.000E+00  0.000E+00  1.00610E+03  2.974E+00  4.312E+01  4.394E+00 -2.720E-01
   1   13    2     8     5    1.7515E+02 -2.5698E+00   1.7772E+02  0.000E+00  0.000E+00  0.000E+00  9.99869E+02  2.994E+00  4.341E+01  4.423E+00 -1.937E-01
   1   13    1     8     6    1.7772E+02 -1.9877E+00   1.7971E+02  0.000E+00  0.000E+00  0.000E+00  9.94883E+02  3.008E+00  4.362E+01  2.667E+00 -2.485E-01





UNSATURATED ZONE PACKAGE VOLUMETRIC BUDGET FOR  TIME STEP    30 STRESS PERIOD   24
  ------------------------------------------------------------------------------



     CUMULATIVE VOLUMES      L**3       RATES FOR THIS TIME STEP      L**3/T
     ------------------                 ------------------------

           IN:                                      IN:
           ---                                      ---
        INFILTRATION =  1064186624.2944          INFILTRATION =           4.4075

          OUT:                                     OUT:
          ----                                     ----
              UZF ET =   996573735.9176                UZF ET =           0.7250
        UZF RECHARGE =      797071.6500          UZF RECHARGE =       0.0000E+00

            IN - OUT =    66815816.7268              IN - OUT =           3.6825

          STORAGE:                                 STORAGE:
          --------                                 --------
      STORAGE CHANGE =    66817460.2961        STORAGE CHANGE =           3.6825

 PERCENT DISCREPANCY IS DIFFERENCE BETWEEN IN-OUT MINUS CHANGE IN STORAGE
 DIVIDED BY THE AVERAGE OF IN AND OUT TIMES 100

 PERCENT DISCREPANCY =          -0.00     PERCENT DISCREPANCY =           0.00






1
  VOLUMETRIC BUDGET FOR ENTIRE MODEL AT END OF TIME STEP   30, STRESS PERIOD  24
  ------------------------------------------------------------------------------

     CUMULATIVE VOLUMES      L**3       RATES FOR THIS TIME STEP      L**3/T
     ------------------                 ------------------------

           IN:                                      IN:
           ---                                      ---
               AG WELLS  =   797503936.0000                 AG WELLS  =           0.0000
      DIVERSION SEGMENTS =           0.0000        DIVERSION SEGMENTS =           0.0000
           GW IRRIGATION =           0.0000             GW IRRIGATION =           0.0000
           SW IRRIGATION =           0.0000             SW IRRIGATION =           0.0000
        SYSTEM LOSSES GW =           0.0000          SYSTEM LOSSES GW =           0.0000
        SYSTEM LOSSES SW =           0.0000          SYSTEM LOSSES SW =           0.0000

                TOTAL IN =   797503936.0000                  TOTAL IN =           0.0000

          OUT:                                     OUT:
          ----                                     ----
               AG WELLS  =           0.0000                 AG WELLS  =           0.0000
      DIVERSION SEGMENTS =           0.0000        DIVERSION SEGMENTS =           0.0000
           GW IRRIGATION =   797503936.0000             GW IRRIGATION =           0.0000
           SW IRRIGATION =           0.0000             SW IRRIGATION =           0.0000
        SYSTEM LOSSES GW =           0.0000          SYSTEM LOSSES GW =           0.0000
        SYSTEM LOSSES SW =           0.0000          SYSTEM LOSSES SW =           0.0000

               TOTAL OUT =   797503936.0000                 TOTAL OUT =           0.0000

                IN - OUT =           0.0000                  IN - OUT =           0.0000

     PERCENT DISCREPANCY =           0.00         PERCENT DISCREPANCY =           0.00



1
  VOLUMETRIC BUDGET FOR ENTIRE MODEL AT END OF TIME STEP   30, STRESS PERIOD  24
  ------------------------------------------------------------------------------

     CUMULATIVE VOLUMES      L**3       RATES FOR THIS TIME STEP      L**3/T
     ------------------                 ------------------------

           IN:                                      IN:
           ---                                      ---
             STORAGE     =  1060415168.0000               STORAGE     =          10.2121
       CONSTANT HEAD     =           0.0000         CONSTANT HEAD     =           0.0000
     HEAD DEP BOUNDS     =    17291956.0000       HEAD DEP BOUNDS     =           0.2858
      STREAM LEAKAGE     =   753909376.0000        STREAM LEAKAGE     =          11.7022
        UZF RECHARGE     =      797071.5625          UZF RECHARGE     =           0.0000
               GW ET     =           0.0000                 GW ET     =           0.0000
     SURFACE LEAKAGE     =           0.0000       SURFACE LEAKAGE     =           0.0000
           AG WELLS      =           0.0000             AG WELLS      =           0.0000

                TOTAL IN =  1832413568.0000                  TOTAL IN =          22.2001

          OUT:                                     OUT:
          ----                                     ----
             STORAGE     =   370439776.0000               STORAGE     =          11.4971
       CONSTANT HEAD     =           0.0000         CONSTANT HEAD     =           0.0000
     HEAD DEP BOUNDS     =    17824224.0000       HEAD DEP BOUNDS     =           0.2899
      STREAM LEAKAGE     =   629329984.0000        STREAM LEAKAGE     =          10.4131
        UZF RECHARGE     =           0.0000          UZF RECHARGE     =           0.0000
               GW ET     =    17319432.0000                 GW ET     =           0.0000
     SURFACE LEAKAGE     =           0.0000       SURFACE LEAKAGE     =           0.0000
           AG WELLS      =   797503936.0000             AG WELLS      =           0.0000

               TOTAL OUT =  1832417280.0000                 TOTAL OUT =          22.2001

                IN - OUT =       -3712.0000                  IN - OUT =       9.5367E-06

     PERCENT DISCREPANCY =          -0.00         PERCENT DISCREPANCY =           0.00






         TIME SUMMARY AT END OF TIME STEP   30 IN STRESS PERIOD   24
                    SECONDS     MINUTES      HOURS       DAYS        YEARS
                    -----------------------------------------------------------
   TIME STEP LENGTH  87667.      1461.1      24.352      1.0147     2.77799E-03
 STRESS PERIOD TIME 2.63000E+06  43833.      730.56      30.440     8.33397E-02
         TOTAL TIME 6.05767E+07 1.00961E+06  16827.      701.12      1.9196    
1
1
                            STRESS PERIOD NO.   25, LENGTH =   2630000.    
                            -----------------------------------------------

                              NUMBER OF TIME STEPS =    30

                               MULTIPLIER FOR DELT =     1.000

                            INITIAL TIME STEP SIZE =   87666.66    

 REUSING NON-PARAMETER GHB CELLS FROM LAST STRESS PERIOD

      2 GHB CELLS

 REUSING STREAM SEGMENT DATA FROM LAST STRESS PERIOD



            AREAL INFILTRATION RATE
 READING ON UNIT   19 WITH FORMAT: (10F4.0)            

            1           2           3           4           5           6           7           8           9          10
 ........................................................................................................................
   1   1.2000E-09   0.000       0.000       0.000       0.000       0.000       0.000       0.000       0.000       0.000    
   2   2.1000E-09  2.0000E-09  8.0000E-10  8.5000E-09   0.000       0.000       0.000       0.000       0.000       0.000    
   3   5.0000E-10  1.1000E-09  8.8000E-09  5.5000E-09   0.000       0.000       0.000       0.000       0.000       0.000    
   4   8.5000E-09  1.1000E-09  1.1000E-09  1.1000E-09  2.0000E-09   0.000       0.000       0.000       0.000       0.000    
   5   8.5000E-09  1.1000E-09  1.1000E-09  1.1000E-09  1.1000E-09   0.000       0.000       0.000       0.000       0.000    
   6   8.5000E-09  5.2000E-09  2.1000E-09  1.1000E-09  1.5000E-09   0.000       0.000       0.000       0.000       0.000    
   7   8.5000E-09  5.2000E-09  2.1000E-09  1.2000E-09  2.0000E-09   0.000       0.000       0.000       0.000       0.000    
   8   5.0000E-10  5.2000E-09  2.1000E-09  1.2000E-09  5.0000E-09   0.000       0.000       0.000       0.000       0.000    
   9   5.0000E-10  5.2000E-09  2.1000E-09  1.2000E-09  5.0000E-09   0.000       0.000       0.000       0.000       0.000    
  10   5.0000E-10  5.2000E-09  2.1000E-09  1.2000E-09  5.8000E-09   0.000       0.000       0.000       0.000       0.000    
  11   1.0000E-10  1.1000E-09  1.1000E-09  1.2000E-09  5.0000E-09   0.000       0.000       0.000       0.000       0.000    
  12   1.1000E-09  1.1000E-09  1.1000E-09  1.1000E-09  2.0000E-09   0.000       0.000       0.000       0.000       0.000    
  13   1.1000E-09  2.2000E-09  2.2000E-09  2.1000E-09  1.0000E-09   0.000       0.000       0.000       0.000       0.000    
  14   2.0000E-10  5.5000E-09  5.5000E-09  5.2000E-09  1.0000E-09   0.000       0.000       0.000       0.000       0.000    
  15    0.000      8.8000E-09  8.8000E-09   0.000       0.000       0.000       0.000       0.000       0.000       0.000    

                  ET RATE =  5.000000E-10

 USING ET EXTINCTION DEPTH FROM PREVIOUS STRESS PERIOD. CURRENT PERIOD IS:      25

 USING EXTINCTION WATER CONTENT FROM PREVIOUS STRESS PERIOD. CURRENT PERIOD IS:      25

 USING AIR ENTRY PRESSURE FROM PREVIOUS STRESS PERIOD. CURRENT PERIOD IS:      25

 USING ROOT PRESSURE HEAD FROM PREVIOUS STRESS PERIOD. CURRENT PERIOD IS:      25

 USING ROOT ACTIVITY FROM PREVIOUS STRESS PERIOD. CURRENT PERIOD IS:      25

 PROCESSING AG STRESS PERIOD DATA

 READING AG STRESS PERIOD DATA

 READING IRRIGATION WELL

 END PROCESSING AG STRESS PERIOD DATA OPTIONS
 
 SOLVING FOR HEAD 
                                                   Max.-Head-Change                         Max.-Flux-Residual
  Residual-Control   Outer-Iter.   Inner-Iter.     Column Row Layer    Maximum-Head-Change  Column Row Layer    Maximum-Flux-Residual          L2-NORM 
          0                 1           2             4    7     1       0.3369053000E-01       4    7    1         0.1773223361E+01      0.3806316704E+01
          0                 2           2             4    7     1      -0.3277194671E-02       4    7    1        -0.1773240166E+00      0.3806286425E+00
          0                 3           2             4    7     1       0.2231645652E-03       4    7    1         0.1241267062E-01      0.2664364641E-01
          0                 4           1             4    7     1      -0.8879927897E-05       4    7    1        -0.5076790051E-03      0.1089712558E-02

    ------------------------------------------------
       NWT REQUIRED            4 OUTER ITERATIONS 
       AND A TOTAL OF          7 INNER ITERATIONS.
    ------------------------------------------------

 NO OUTPUT CONTROL FOR STRESS PERIOD   25   TIME STEP    1
 
 SOLVING FOR HEAD 
                                                   Max.-Head-Change                         Max.-Flux-Residual
  Residual-Control   Outer-Iter.   Inner-Iter.     Column Row Layer    Maximum-Head-Change  Column Row Layer    Maximum-Flux-Residual          L2-NORM 
          0                 1           2             4    7     1       0.3326064590E-01       4    7    1         0.1750499030E+01      0.3766659508E+01
          0                 2           2             4    7     1      -0.3235378039E-02       4    7    1        -0.1750515407E+00      0.3766620154E+00
          0                 3           2             4    7     1       0.2203170135E-03       4    7    1         0.1225359763E-01      0.2636590414E-01
          0                 4           1             4    7     1      -0.8766621040E-05       4    7    1        -0.5011728983E-03      0.1078361873E-02

    ------------------------------------------------
       NWT REQUIRED            4 OUTER ITERATIONS 
       AND A TOTAL OF          7 INNER ITERATIONS.
    ------------------------------------------------

 NO OUTPUT CONTROL FOR STRESS PERIOD   25   TIME STEP    2
 
 SOLVING FOR HEAD 
                                                   Max.-Head-Change                         Max.-Flux-Residual
  Residual-Control   Outer-Iter.   Inner-Iter.     Column Row Layer    Maximum-Head-Change  Column Row Layer    Maximum-Flux-Residual          L2-NORM 
          0                 1           2             4    7     1       0.3283803657E-01       4    7    1         0.1728158959E+01      0.3727093918E+01
          0                 2           2             4    7     1      -0.3194269062E-02       4    7    1        -0.1728174919E+00      0.3727057227E+00
          0                 3           2             4    7     1       0.2175176509E-03       4    7    1         0.1209721454E-01      0.2608896754E-01
          0                 4           1             4    7     1      -0.8655232093E-05       4    7    1        -0.4947768407E-03      0.1067012716E-02

    ------------------------------------------------
       NWT REQUIRED            4 OUTER ITERATIONS 
       AND A TOTAL OF          7 INNER ITERATIONS.
    ------------------------------------------------

 NO OUTPUT CONTROL FOR STRESS PERIOD   25   TIME STEP    3
 
 SOLVING FOR HEAD 
                                                   Max.-Head-Change                         Max.-Flux-Residual
  Residual-Control   Outer-Iter.   Inner-Iter.     Column Row Layer    Maximum-Head-Change  Column Row Layer    Maximum-Flux-Residual          L2-NORM 
          0                 1           2             4    7     1       0.3242283213E-01       4    7    1         0.1706210693E+01      0.3688219046E+01
          0                 2           2             4    7     1      -0.3153880396E-02       4    7    1        -0.1706226246E+00      0.3688185104E+00
          0                 3           2             4    7     1       0.2147673384E-03       4    7    1         0.1194357417E-01      0.2581688591E-01
          0                 4           1             4    7     1      -0.8545794444E-05       4    7    1        -0.4884929349E-03      0.1055880646E-02

    ------------------------------------------------
       NWT REQUIRED            4 OUTER ITERATIONS 
       AND A TOTAL OF          7 INNER ITERATIONS.
    ------------------------------------------------

 NO OUTPUT CONTROL FOR STRESS PERIOD   25   TIME STEP    4
 
 SOLVING FOR HEAD 
                                                   Max.-Head-Change                         Max.-Flux-Residual
  Residual-Control   Outer-Iter.   Inner-Iter.     Column Row Layer    Maximum-Head-Change  Column Row Layer    Maximum-Flux-Residual          L2-NORM 
          0                 1           2             4    7     1       0.3201461594E-01       4    7    1         0.1684631730E+01      0.3650003885E+01
          0                 2           2             4    7     1      -0.3114170615E-02       4    7    1        -0.1684646889E+00      0.3649636457E+00
          0                 3           2             4    7     1       0.2120632552E-03       4    7    1         0.1179251898E-01      0.2554709664E-01
          0                 4           1             4    7     1      -0.8438196534E-05       4    7    1        -0.4823147633E-03      0.1044868432E-02

    ------------------------------------------------
       NWT REQUIRED            4 OUTER ITERATIONS 
       AND A TOTAL OF          7 INNER ITERATIONS.
    ------------------------------------------------

 NO OUTPUT CONTROL FOR STRESS PERIOD   25   TIME STEP    5
 
 SOLVING FOR HEAD 
                                                   Max.-Head-Change                         Max.-Flux-Residual
  Residual-Control   Outer-Iter.   Inner-Iter.     Column Row Layer    Maximum-Head-Change  Column Row Layer    Maximum-Flux-Residual          L2-NORM 
          0                 1           2             4    7     1       0.3161326036E-01       4    7    1         0.1663415141E+01      0.3612459523E+01
          0                 2           2             4    7     1      -0.3075129993E-02       4    7    1        -0.1663429914E+00      0.3612430302E+00
          0                 3           2             4    7     1       0.2094047392E-03       4    7    1         0.1164400045E-01      0.2528666469E-01
          0                 4           1             4    7     1      -0.8332411654E-05       4    7    1        -0.4762403519E-03      0.1034210314E-02

    ------------------------------------------------
       NWT REQUIRED            4 OUTER ITERATIONS 
       AND A TOTAL OF          7 INNER ITERATIONS.
    ------------------------------------------------

 NO OUTPUT CONTROL FOR STRESS PERIOD   25   TIME STEP    6
 
 SOLVING FOR HEAD 
                                                   Max.-Head-Change                         Max.-Flux-Residual
  Residual-Control   Outer-Iter.   Inner-Iter.     Column Row Layer    Maximum-Head-Change  Column Row Layer    Maximum-Flux-Residual          L2-NORM 
          0                 1           2             4    7     1       0.3121890205E-01       4    7    1         0.1642568789E+01      0.3575655903E+01
          0                 2           2             4    7     1      -0.3036769131E-02       4    7    1        -0.1642583188E+00      0.3575628371E+00
          0                 3           2             4    7     1       0.2067925117E-03       4    7    1         0.1149807365E-01      0.2502905272E-01
          0                 4           1             4    7     1      -0.8228468469E-05       4    7    1        -0.4702719248E-03      0.1023673932E-02

    ------------------------------------------------
       NWT REQUIRED            4 OUTER ITERATIONS 
       AND A TOTAL OF          7 INNER ITERATIONS.
    ------------------------------------------------

 NO OUTPUT CONTROL FOR STRESS PERIOD   25   TIME STEP    7
 
 SOLVING FOR HEAD 
                                                   Max.-Head-Change                         Max.-Flux-Residual
  Residual-Control   Outer-Iter.   Inner-Iter.     Column Row Layer    Maximum-Head-Change  Column Row Layer    Maximum-Flux-Residual          L2-NORM 
          0                 1           2             4    7     1       0.3083127048E-01       4    7    1         0.1622077966E+01      0.3539471104E+01
          0                 2           2             4    7     1      -0.2999062613E-02       4    7    1        -0.1622092001E+00      0.3539445454E+00
          0                 3           2             4    7     1       0.2042248428E-03       4    7    1         0.1135463562E-01      0.2477580181E-01
          0                 4           1             4    7     1      -0.8126298365E-05       4    7    1        -0.4644052908E-03      0.1013264937E-02

    ------------------------------------------------
       NWT REQUIRED            4 OUTER ITERATIONS 
       AND A TOTAL OF          7 INNER ITERATIONS.
    ------------------------------------------------

 NO OUTPUT CONTROL FOR STRESS PERIOD   25   TIME STEP    8
 
 SOLVING FOR HEAD 
                                                   Max.-Head-Change                         Max.-Flux-Residual
  Residual-Control   Outer-Iter.   Inner-Iter.     Column Row Layer    Maximum-Head-Change  Column Row Layer    Maximum-Flux-Residual          L2-NORM 
          0                 1           2             4    7     1       0.3045023591E-01       4    7    1         0.1601935910E+01      0.3503892419E+01
          0                 2           2             4    7     1      -0.2961997818E-02       4    7    1        -0.1601949590E+00      0.3503868385E+00
          0                 3           2             4    7     1       0.2017008732E-03       4    7    1         0.1121363905E-01      0.2452678541E-01
          0                 4           1             4    7     1      -0.8025867379E-05       4    7    1        -0.4586385257E-03      0.1003128665E-02

    ------------------------------------------------
       NWT REQUIRED            4 OUTER ITERATIONS 
       AND A TOTAL OF          7 INNER ITERATIONS.
    ------------------------------------------------

 NO OUTPUT CONTROL FOR STRESS PERIOD   25   TIME STEP    9
 
 SOLVING FOR HEAD 
                                                   Max.-Head-Change                         Max.-Flux-Residual
  Residual-Control   Outer-Iter.   Inner-Iter.     Column Row Layer    Maximum-Head-Change  Column Row Layer    Maximum-Flux-Residual          L2-NORM 
          0                 1           2             4    7     1       0.3007579757E-01       4    7    1         0.1582143210E+01      0.3468893911E+01
          0                 2           2             4    7     1      -0.2925574669E-02       4    7    1        -0.1582156545E+00      0.3468870876E+00
          0                 3           2             4    7     1       0.1992205965E-03       4    7    1         0.1107508798E-01      0.2428180989E-01
          0                 4           1             4    7     1      -0.7927174934E-05       4    7    1        -0.4529717835E-03      0.9931258273E-03

    ------------------------------------------------
       NWT REQUIRED            4 OUTER ITERATIONS 
       AND A TOTAL OF          7 INNER ITERATIONS.
    ------------------------------------------------

 NO OUTPUT CONTROL FOR STRESS PERIOD   25   TIME STEP   10
 
 SOLVING FOR HEAD 
                                                   Max.-Head-Change                         Max.-Flux-Residual
  Residual-Control   Outer-Iter.   Inner-Iter.     Column Row Layer    Maximum-Head-Change  Column Row Layer    Maximum-Flux-Residual          L2-NORM 
          0                 1           2             4    7     1       0.2970769090E-01       4    7    1         0.1562685196E+01      0.3434473161E+01
          0                 2           2             4    7     1      -0.2889767439E-02       4    7    1        -0.1562698195E+00      0.3434451207E+00
          0                 3           2             4    7     1       0.1967822609E-03       4    7    1         0.1093887978E-01      0.2404089948E-01
          0                 4           1             4    7     1      -0.7830151149E-05       4    7    1        -0.4474008667E-03      0.9832645198E-03

    ------------------------------------------------
       NWT REQUIRED            4 OUTER ITERATIONS 
       AND A TOTAL OF          7 INNER ITERATIONS.
    ------------------------------------------------

 NO OUTPUT CONTROL FOR STRESS PERIOD   25   TIME STEP   11
 
 SOLVING FOR HEAD 
                                                   Max.-Head-Change                         Max.-Flux-Residual
  Residual-Control   Outer-Iter.   Inner-Iter.     Column Row Layer    Maximum-Head-Change  Column Row Layer    Maximum-Flux-Residual          L2-NORM 
          0                 1           2             4    7     1       0.2934578719E-01       4    7    1         0.1543555466E+01      0.3400613330E+01
          0                 2           2             4    7     1      -0.2854563679E-02       4    7    1        -0.1543568137E+00      0.3400593445E+00
          0                 3           2             4    7     1       0.1943850204E-03       4    7    1         0.1080496965E-01      0.2380389162E-01
          0                 4           1             4    7     1      -0.7734762636E-05       4    7    1        -0.4419239306E-03      0.9735444184E-03

    ------------------------------------------------
       NWT REQUIRED            4 OUTER ITERATIONS 
       AND A TOTAL OF          7 INNER ITERATIONS.
    ------------------------------------------------

 NO OUTPUT CONTROL FOR STRESS PERIOD   25   TIME STEP   12
 
 SOLVING FOR HEAD 
                                                   Max.-Head-Change                         Max.-Flux-Residual
  Residual-Control   Outer-Iter.   Inner-Iter.     Column Row Layer    Maximum-Head-Change  Column Row Layer    Maximum-Flux-Residual          L2-NORM 
          0                 1           2             4    7     1       0.2899009523E-01       4    7    1         0.1524754657E+01      0.3367307368E+01
          0                 2           2             4    7     1      -0.2819964079E-02       4    7    1        -0.1524767011E+00      0.3367288273E+00
          0                 3           2             4    7     1       0.1920289199E-03       4    7    1         0.1067336199E-01      0.2357076594E-01
          0                 4           1             4    7     1      -0.7641011008E-05       4    7    1        -0.4365411580E-03      0.9640294082E-03

    ------------------------------------------------
       NWT REQUIRED            4 OUTER ITERATIONS 
       AND A TOTAL OF          7 INNER ITERATIONS.
    ------------------------------------------------

 NO OUTPUT CONTROL FOR STRESS PERIOD   25   TIME STEP   13
 
 SOLVING FOR HEAD 
                                                   Max.-Head-Change                         Max.-Flux-Residual
  Residual-Control   Outer-Iter.   Inner-Iter.     Column Row Layer    Maximum-Head-Change  Column Row Layer    Maximum-Flux-Residual          L2-NORM 
          0                 1           2             4    7     1       0.2864048358E-01       4    7    1         0.1506275921E+01      0.3334529682E+01
          0                 2           2             4    7     1      -0.2785955942E-02       4    7    1        -0.1506287965E+00      0.3334510602E+00
          0                 3           2             4    7     1       0.1897130966E-03       4    7    1         0.1054400891E-01      0.2334125328E-01
          0                 4           1             4    7     1      -0.7548862531E-05       4    7    1        -0.4312506194E-03      0.9546369155E-03

    ------------------------------------------------
       NWT REQUIRED            4 OUTER ITERATIONS 
       AND A TOTAL OF          7 INNER ITERATIONS.
    ------------------------------------------------

 NO OUTPUT CONTROL FOR STRESS PERIOD   25   TIME STEP   14
 
 SOLVING FOR HEAD 
                                                   Max.-Head-Change                         Max.-Flux-Residual
  Residual-Control   Outer-Iter.   Inner-Iter.     Column Row Layer    Maximum-Head-Change  Column Row Layer    Maximum-Flux-Residual          L2-NORM 
          0                 1           2             4    7     1       0.2829682580E-01       4    7    1         0.1488112437E+01      0.3302281246E+01
          0                 2           2             4    7     1      -0.2752526965E-02       4    7    1        -0.1488124181E+00      0.3302263502E+00
          0                 3           2             4    7     1       0.1874367116E-03       4    7    1         0.1041686265E-01      0.2311562817E-01
          0                 4           1             4    7     1      -0.7458283243E-05       4    7    1        -0.4260503324E-03      0.9454205317E-03

    ------------------------------------------------
       NWT REQUIRED            4 OUTER ITERATIONS 
       AND A TOTAL OF          7 INNER ITERATIONS.
    ------------------------------------------------

 NO OUTPUT CONTROL FOR STRESS PERIOD   25   TIME STEP   15
 
 SOLVING FOR HEAD 
                                                   Max.-Head-Change                         Max.-Flux-Residual
  Residual-Control   Outer-Iter.   Inner-Iter.     Column Row Layer    Maximum-Head-Change  Column Row Layer    Maximum-Flux-Residual          L2-NORM 
          0                 1           2             4    7     1       0.2795886381E-01       4    7    1         0.1470250331E+01      0.3270539422E+01
          0                 2           2             4    7     1      -0.2719652045E-02       4    7    1        -0.1470261783E+00      0.3270522981E+00
          0                 3           2             4    7     1       0.1851980554E-03       4    7    1         0.1029182608E-01      0.2289352231E-01
          0                 4           1             4    7     1      -0.7369204644E-05       4    7    1        -0.4209363117E-03      0.9363422427E-03

    ------------------------------------------------
       NWT REQUIRED            4 OUTER ITERATIONS 
       AND A TOTAL OF          7 INNER ITERATIONS.
    ------------------------------------------------

 NO OUTPUT CONTROL FOR STRESS PERIOD   25   TIME STEP   16
 
 SOLVING FOR HEAD 
                                                   Max.-Head-Change                         Max.-Flux-Residual
  Residual-Control   Outer-Iter.   Inner-Iter.     Column Row Layer    Maximum-Head-Change  Column Row Layer    Maximum-Flux-Residual          L2-NORM 
          0                 1           2             4    7     1       0.2762674629E-01       4    7    1         0.1452698176E+01      0.3239302532E+01
          0                 2           2             4    7     1      -0.2687345646E-02       4    7    1        -0.1452709343E+00      0.3239286110E+00
          0                 3           2             4    7     1       0.1829981138E-03       4    7    1         0.1016895923E-01      0.2267478760E-01
          0                 4           1             4    7     1      -0.7281667028E-05       4    7    1        -0.4159110599E-03      0.9273963808E-03

    ------------------------------------------------
       NWT REQUIRED            4 OUTER ITERATIONS 
       AND A TOTAL OF          7 INNER ITERATIONS.
    ------------------------------------------------

 NO OUTPUT CONTROL FOR STRESS PERIOD   25   TIME STEP   17
 
 SOLVING FOR HEAD 
                                                   Max.-Head-Change                         Max.-Flux-Residual
  Residual-Control   Outer-Iter.   Inner-Iter.     Column Row Layer    Maximum-Head-Change  Column Row Layer    Maximum-Flux-Residual          L2-NORM 
          0                 1           2             4    7     1       0.2730008166E-01       4    7    1         0.1435434409E+01      0.3208557953E+01
          0                 2           2             4    7     1      -0.2655569675E-02       4    7    1        -0.1435445300E+00      0.3208541615E+00
          0                 3           2             4    7     1       0.1808342920E-03       4    7    1         0.1004811114E-01      0.2245956966E-01
          0                 4           1             4    7     1      -0.7195566549E-05       4    7    1        -0.4109683591E-03      0.9185882517E-03

    ------------------------------------------------
       NWT REQUIRED            4 OUTER ITERATIONS 
       AND A TOTAL OF          7 INNER ITERATIONS.
    ------------------------------------------------

 NO OUTPUT CONTROL FOR STRESS PERIOD   25   TIME STEP   18
 
 SOLVING FOR HEAD 
                                                   Max.-Head-Change                         Max.-Flux-Residual
  Residual-Control   Outer-Iter.   Inner-Iter.     Column Row Layer    Maximum-Head-Change  Column Row Layer    Maximum-Flux-Residual          L2-NORM 
          0                 1           2             4    7     1       0.2697902781E-01       4    7    1         0.1418468001E+01      0.3178297773E+01
          0                 2           2             4    7     1      -0.2624339492E-02       4    7    1        -0.1418478622E+00      0.3178281927E+00
          0                 3           2             4    7     1       0.1787076362E-03       4    7    1         0.9929344591E-02      0.2224775592E-01
          0                 4           1             4    7     1      -0.7110945115E-05       4    7    1        -0.4061108116E-03      0.9099046924E-03

    ------------------------------------------------
       NWT REQUIRED            4 OUTER ITERATIONS 
       AND A TOTAL OF          7 INNER ITERATIONS.
    ------------------------------------------------

 NO OUTPUT CONTROL FOR STRESS PERIOD   25   TIME STEP   19
 
 SOLVING FOR HEAD 
                                                   Max.-Head-Change                         Max.-Flux-Residual
  Residual-Control   Outer-Iter.   Inner-Iter.     Column Row Layer    Maximum-Head-Change  Column Row Layer    Maximum-Flux-Residual          L2-NORM 
          0                 1           2             4    7     1       0.2666332513E-01       4    7    1         0.1401785183E+01      0.3148504762E+01
          0                 2           2             4    7     1      -0.2593629842E-02       4    7    1        -0.1401795542E+00      0.3148489545E+00
          0                 3           2             4    7     1       0.1766164267E-03       4    7    1         0.9812563234E-02      0.2203924106E-01
          0                 4           1             4    7     1      -0.7027733649E-05       4    7    1        -0.4013344437E-03      0.9014047821E-03

    ------------------------------------------------
       NWT REQUIRED            4 OUTER ITERATIONS 
       AND A TOTAL OF          7 INNER ITERATIONS.
    ------------------------------------------------

 NO OUTPUT CONTROL FOR STRESS PERIOD   25   TIME STEP   20
 
 SOLVING FOR HEAD 
                                                   Max.-Head-Change                         Max.-Flux-Residual
  Residual-Control   Outer-Iter.   Inner-Iter.     Column Row Layer    Maximum-Head-Change  Column Row Layer    Maximum-Flux-Residual          L2-NORM 
          0                 1           2             4    7     1       0.2635286163E-01       4    7    1         0.1385379812E+01      0.3119169539E+01
          0                 2           2             4    7     1      -0.2563429832E-02       4    7    1        -0.1385389917E+00      0.3119154432E+00
          0                 3           2             4    7     1       0.1745599215E-03       4    7    1         0.9697724032E-02      0.2183388174E-01
          0                 4           1             4    7     1      -0.6945903368E-05       4    7    1        -0.3966375145E-03      0.8929943541E-03

    ------------------------------------------------
       NWT REQUIRED            4 OUTER ITERATIONS 
       AND A TOTAL OF          7 INNER ITERATIONS.
    ------------------------------------------------

 NO OUTPUT CONTROL FOR STRESS PERIOD   25   TIME STEP   21
 
 SOLVING FOR HEAD 
                                                   Max.-Head-Change                         Max.-Flux-Residual
  Residual-Control   Outer-Iter.   Inner-Iter.     Column Row Layer    Maximum-Head-Change  Column Row Layer    Maximum-Flux-Residual          L2-NORM 
          0                 1           2             4    7     1       0.2604752599E-01       4    7    1         0.1369246082E+01      0.3090285431E+01
          0                 2           2             4    7     1      -0.2533728634E-02       4    7    1        -0.1369255939E+00      0.3090270523E+00
          0                 3           2             4    7     1       0.1725373837E-03       4    7    1         0.9584786388E-02      0.2163173212E-01
          0                 4           1             4    7     1      -0.6865424685E-05       4    7    1        -0.3920183512E-03      0.8850733413E-03

    ------------------------------------------------
       NWT REQUIRED            4 OUTER ITERATIONS 
       AND A TOTAL OF          7 INNER ITERATIONS.
    ------------------------------------------------

 NO OUTPUT CONTROL FOR STRESS PERIOD   25   TIME STEP   22
 
 SOLVING FOR HEAD 
                                                   Max.-Head-Change                         Max.-Flux-Residual
  Residual-Control   Outer-Iter.   Inner-Iter.     Column Row Layer    Maximum-Head-Change  Column Row Layer    Maximum-Flux-Residual          L2-NORM 
          0                 1           2             4    7     1       0.2574734297E-01       4    7    1         0.1353385542E+01      0.3061837913E+01
          0                 2           2             4    7     1      -0.2504528655E-02       4    7    1        -0.1353395158E+00      0.3061823202E+00
          0                 3           2             4    7     1       0.1705489769E-03       4    7    1         0.9473761101E-02      0.2143255476E-01
          0                 4           1             4    7     1      -0.6786303933E-05       4    7    1        -0.3874774075E-03      0.8765696784E-03

    ------------------------------------------------
       NWT REQUIRED            4 OUTER ITERATIONS 
       AND A TOTAL OF          7 INNER ITERATIONS.
    ------------------------------------------------

 NO OUTPUT CONTROL FOR STRESS PERIOD   25   TIME STEP   23
 
 SOLVING FOR HEAD 
                                                   Max.-Head-Change                         Max.-Flux-Residual
  Residual-Control   Outer-Iter.   Inner-Iter.     Column Row Layer    Maximum-Head-Change  Column Row Layer    Maximum-Flux-Residual          L2-NORM 
          0                 1           2             4    7     1       0.2545219852E-01       4    7    1         0.1337792156E+01      0.3033828775E+01
          0                 2           2             4    7     1      -0.2475818801E-02       4    7    1        -0.1337801538E+00      0.3033814290E+00
          0                 3           2             4    7     1       0.1685939460E-03       4    7    1         0.9364605938E-02      0.2123651421E-01
          0                 4           1             4    7     1      -0.6708511868E-05       4    7    1        -0.3830129717E-03      0.8685613922E-03

    ------------------------------------------------
       NWT REQUIRED            4 OUTER ITERATIONS 
       AND A TOTAL OF          7 INNER ITERATIONS.
    ------------------------------------------------

 NO OUTPUT CONTROL FOR STRESS PERIOD   25   TIME STEP   24
 
 SOLVING FOR HEAD 
                                                   Max.-Head-Change                         Max.-Flux-Residual
  Residual-Control   Outer-Iter.   Inner-Iter.     Column Row Layer    Maximum-Head-Change  Column Row Layer    Maximum-Flux-Residual          L2-NORM 
          0                 1           2             4    7     1       0.2516185240E-01       4    7    1         0.1322452689E+01      0.3006244956E+01
          0                 2           2             4    7     1      -0.2447575704E-02       4    7    1        -0.1322461844E+00      0.3006266305E+00
          0                 3           2             4    7     1       0.1666706986E-03       4    7    1         0.9257228250E-02      0.2104365381E-01
          0                 4           1             4    7     1      -0.6631983674E-05       4    7    1        -0.3786211871E-03      0.8606794846E-03

    ------------------------------------------------
       NWT REQUIRED            4 OUTER ITERATIONS 
       AND A TOTAL OF          7 INNER ITERATIONS.
    ------------------------------------------------

 NO OUTPUT CONTROL FOR STRESS PERIOD   25   TIME STEP   25
 
 SOLVING FOR HEAD 
                                                   Max.-Head-Change                         Max.-Flux-Residual
  Residual-Control   Outer-Iter.   Inner-Iter.     Column Row Layer    Maximum-Head-Change  Column Row Layer    Maximum-Flux-Residual          L2-NORM 
          0                 1           2             4    7     1       0.2487633498E-01       4    7    1         0.1307369329E+01      0.2979064415E+01
          0                 2           2             4    7     1      -0.2419802316E-02       4    7    1        -0.1307378262E+00      0.2979050408E+00
          0                 3           2             4    7     1       0.1647794375E-03       4    7    1         0.9151643337E-02      0.2085318068E-01
          0                 4           1             4    7     1      -0.6556728676E-05       4    7    1        -0.3743027871E-03      0.8528879658E-03

    ------------------------------------------------
       NWT REQUIRED            4 OUTER ITERATIONS 
       AND A TOTAL OF          7 INNER ITERATIONS.
    ------------------------------------------------

 NO OUTPUT CONTROL FOR STRESS PERIOD   25   TIME STEP   26
 
 SOLVING FOR HEAD 
                                                   Max.-Head-Change                         Max.-Flux-Residual
  Residual-Control   Outer-Iter.   Inner-Iter.     Column Row Layer    Maximum-Head-Change  Column Row Layer    Maximum-Flux-Residual          L2-NORM 
          0                 1           2             4    7     1       0.2459540659E-01       4    7    1         0.1292529005E+01      0.2952295547E+01
          0                 2           2             4    7     1      -0.2392475325E-02       4    7    1        -0.1292537723E+00      0.2952281380E+00
          0                 3           2             4    7     1       0.1629185737E-03       4    7    1         0.9047759719E-02      0.2066576979E-01
          0                 4           1             4    7     1      -0.6482683323E-05       4    7    1        -0.3700539296E-03      0.8452229292E-03

    ------------------------------------------------
       NWT REQUIRED            4 OUTER ITERATIONS 
       AND A TOTAL OF          7 INNER ITERATIONS.
    ------------------------------------------------

 NO OUTPUT CONTROL FOR STRESS PERIOD   25   TIME STEP   27
 
 SOLVING FOR HEAD 
                                                   Max.-Head-Change                         Max.-Flux-Residual
  Residual-Control   Outer-Iter.   Inner-Iter.     Column Row Layer    Maximum-Head-Change  Column Row Layer    Maximum-Flux-Residual          L2-NORM 
          0                 1           2             4    7     1       0.2431923822E-01       4    7    1         0.1277941258E+01      0.2925923474E+01
          0                 2           2             4    7     1      -0.2365611363E-02       4    7    1        -0.1277949766E+00      0.2925909709E+00
          0                 3           2             4    7     1       0.1610892405E-03       4    7    1         0.8945644179E-02      0.2048120320E-01
          0                 4           1             4    7     1      -0.6409892401E-05       4    7    1        -0.3658774069E-03      0.8376847398E-03

    ------------------------------------------------
       NWT REQUIRED            4 OUTER ITERATIONS 
       AND A TOTAL OF          7 INNER ITERATIONS.
    ------------------------------------------------

 NO OUTPUT CONTROL FOR STRESS PERIOD   25   TIME STEP   28
 
 SOLVING FOR HEAD 
                                                   Max.-Head-Change                         Max.-Flux-Residual
  Residual-Control   Outer-Iter.   Inner-Iter.     Column Row Layer    Maximum-Head-Change  Column Row Layer    Maximum-Flux-Residual          L2-NORM 
          0                 1           2             4    7     1       0.2404745714E-01       4    7    1         0.1263585665E+01      0.2899945651E+01
          0                 2           2             4    7     1      -0.2339174173E-02       4    7    1        -0.1263593969E+00      0.2899931745E+00
          0                 3           2             4    7     1       0.1592889687E-03       4    7    1         0.8845153746E-02      0.2029932924E-01
          0                 4           1             4    7     1      -0.6338257821E-05       4    7    1        -0.3617673267E-03      0.8302400176E-03

    ------------------------------------------------
       NWT REQUIRED            4 OUTER ITERATIONS 
       AND A TOTAL OF          7 INNER ITERATIONS.
    ------------------------------------------------

 NO OUTPUT CONTROL FOR STRESS PERIOD   25   TIME STEP   29
 
 SOLVING FOR HEAD 
                                                   Max.-Head-Change                         Max.-Flux-Residual
  Residual-Control   Outer-Iter.   Inner-Iter.     Column Row Layer    Maximum-Head-Change  Column Row Layer    Maximum-Flux-Residual          L2-NORM 
          0                 1           2             4    7     1       0.2378008749E-01       4    7    1         0.1249464867E+01      0.2878111363E+01
          0                 2           2             4    7     1      -0.2313166103E-02       4    7    1        -0.1249472973E+00      0.2878018650E+00
          0                 3           2             4    7     1       0.1575179185E-03       4    7    1         0.8746306911E-02      0.2014524571E-01
          0                 4           1             4    7     1      -0.6267786144E-05       4    7    1        -0.3577244986E-03      0.8238930809E-03

    ------------------------------------------------
       NWT REQUIRED            4 OUTER ITERATIONS 
       AND A TOTAL OF          7 INNER ITERATIONS.
    ------------------------------------------------

 NO OUTPUT CONTROL FOR STRESS PERIOD   25   TIME STEP   30



 STREAM LISTING     PERIOD     25   STEP       30

 LAYER ROW COL. STREAM  RCH.  FLOW INTO     FLOW TO   FLOW OUT OF   OVRLND.     DIRECT     STREAM       STREAM     STREAM     STREAM   STREAMBED  STREAMBED
                SEG.NO.  NO.  STRM. RCH.    AQUIFER    STRM. RCH.    RUNOFF     PRECIP       ET          HEAD       DEPTH      WIDTH   CONDCTNC.   GRADIENT

   1    1    1     1     1    1.8461E+01  2.1075E-01   1.8250E+01  0.000E+00  0.000E+00  0.000E+00  1.09412E+03  1.073E+00  1.150E+01  5.174E-02  1.358E+00
   1    2    2     1     2    1.8250E+01  3.2508E-01   1.7925E+01  0.000E+00  0.000E+00  0.000E+00  1.08913E+03  1.068E+00  1.141E+01  7.990E-02  1.356E+00
   1    3    3     1     3    1.7925E+01  2.7598E-01   1.7649E+01  0.000E+00  0.000E+00  0.000E+00  1.08348E+03  1.063E+00  1.132E+01  6.792E-02  1.354E+00
   1    3    4     1     4    1.7649E+01  2.5310E-01   1.7396E+01  0.000E+00  0.000E+00  0.000E+00  1.07847E+03  1.059E+00  1.124E+01  6.236E-02  1.353E+00
   1    4    5     2     1    1.5396E+01  3.0400E-01   1.5092E+01  0.000E+00  0.000E+00  0.000E+00  1.07283E+03  8.974E-01  1.200E+01  7.800E-02  1.299E+00
   1    5    6     2     2    1.5092E+01  2.3327E-01   1.4859E+01  0.000E+00  0.000E+00  0.000E+00  1.06740E+03  8.879E-01  1.200E+01  6.000E-02  1.296E+00
   1    6    6     2     3    1.4859E+01  2.3278E-01   1.4626E+01  0.000E+00  0.000E+00  0.000E+00  1.06267E+03  8.796E-01  1.200E+01  6.000E-02  1.293E+00
   1    7    6     2     4    1.4626E+01  2.3227E-01   1.4394E+01  0.000E+00  0.000E+00  0.000E+00  1.05795E+03  8.712E-01  1.200E+01  6.000E-02  1.290E+00
   1    8    6     2     5    1.4394E+01  2.3177E-01   1.4162E+01  0.000E+00  0.000E+00  0.000E+00  1.05322E+03  8.629E-01  1.200E+01  6.000E-02  1.288E+00
   1    3    5     3     1    2.0000E+00  2.8252E-01   1.7175E+00  0.000E+00  0.000E+00  0.000E+00  1.07555E+03  1.909E+00  9.636E+00  7.227E-02  1.955E+00
   1    3    6     3     2    1.7175E+00  2.4905E-01   1.4684E+00  0.000E+00  0.000E+00  0.000E+00  1.07264E+03  1.727E+00  8.909E+00  6.682E-02  1.864E+00
   1    3    7     3     3    1.4684E+00  1.9718E-01   1.2712E+00  0.000E+00  0.000E+00  0.000E+00  1.06987E+03  1.555E+00  8.218E+00  5.547E-02  1.777E+00
   1    4    8     3     4    1.2712E+00  2.2567E-01   1.0456E+00  0.000E+00  0.000E+00  0.000E+00  1.06682E+03  1.364E+00  7.455E+00  6.709E-02  1.682E+00
   1    5    8     3     5    1.0456E+00  1.5790E-01   8.8768E-01  0.000E+00  0.000E+00  0.000E+00  1.06362E+03  1.164E+00  6.655E+00  4.991E-02  1.582E+00
   1    6    8     3     6    8.8768E-01  5.5980E-02   8.3170E-01  0.000E+00  0.000E+00  0.000E+00  1.06158E+03  1.036E+00  6.145E+00  1.844E-02  1.518E+00
   1    5   10     4     1    1.0000E+01  9.0919E-02   9.9091E+00  0.000E+00  0.000E+00  0.000E+00  1.07836E+03  6.368E-01  1.000E+01  2.500E-02  1.212E+00
   1    5    9     4     2    9.9091E+00  1.8158E-01   9.7275E+00  0.000E+00  0.000E+00  0.000E+00  1.07154E+03  6.315E-01  1.000E+01  5.000E-02  1.211E+00
   1    6    8     4     3    9.7275E+00  1.2689E-01   9.6006E+00  0.000E+00  0.000E+00  0.000E+00  1.06381E+03  6.256E-01  1.000E+01  3.500E-02  1.209E+00
   1    6    8     5     1    1.0432E+01  2.2686E-01   1.0205E+01  0.000E+00  0.000E+00  0.000E+00  1.05868E+03  6.790E-01  1.542E+01  6.166E-02  1.226E+00
   1    7    7     5     2    1.0205E+01  2.7894E-01   9.9265E+00  0.000E+00  0.000E+00  0.000E+00  1.05417E+03  6.732E-01  1.519E+01  7.594E-02  1.224E+00
   1    8    7     5     3    9.9265E+00  1.9221E-01   9.7343E+00  0.000E+00  0.000E+00  0.000E+00  1.04992E+03  6.676E-01  1.497E+01  5.241E-02  1.223E+00
   1    8    6     5     4    9.7343E+00  1.3577E-01   9.5985E+00  0.000E+00  0.000E+00  0.000E+00  1.04691E+03  6.637E-01  1.482E+01  3.706E-02  1.221E+00
   1    9    6     6     1    2.3760E+01  2.5084E-01   2.3510E+01  0.000E+00  0.000E+00  0.000E+00  1.04391E+03  1.181E+00  1.200E+01  6.000E-02  1.394E+00
   1   10    7     6     2    2.3510E+01  2.5038E-01   2.3259E+01  0.000E+00  0.000E+00  0.000E+00  1.03935E+03  1.173E+00  1.200E+01  6.000E-02  1.391E+00
   1   11    7     6     3    2.3259E+01  2.4993E-01   2.3009E+01  0.000E+00  0.000E+00  0.000E+00  1.03480E+03  1.166E+00  1.200E+01  6.000E-02  1.389E+00
   1   12    7     6     4    2.3009E+01  2.4948E-01   2.2760E+01  0.000E+00  0.000E+00  0.000E+00  1.03025E+03  1.158E+00  1.200E+01  6.000E-02  1.386E+00
   1   13    7     6     5    2.2760E+01  2.3309E-03   2.2757E+01  0.000E+00  0.000E+00  0.000E+00  1.02706E+03  1.154E+00  1.200E+01  2.400E-02  3.237E-02
   1   14    9     7     1    1.5000E+02  1.3374E+00   1.4866E+02  0.000E+00  0.000E+00  0.000E+00  1.03987E+03  2.288E+00  5.529E+01  5.593E-01  7.970E-01
   1   13    8     7     2    1.4866E+02  1.8562E+00   1.4681E+02  0.000E+00  0.000E+00  0.000E+00  1.03478E+03  2.279E+00  5.526E+01  6.148E-01  1.006E+00
   1   13    7     7     3    1.4681E+02  1.5209E+00   1.4529E+02  0.000E+00  0.000E+00  0.000E+00  1.02969E+03  2.270E+00  5.522E+01  5.584E-01  9.078E-01
   1   13    6     8     1    1.6804E+02  9.6869E-01   1.6707E+02  0.000E+00  0.000E+00  0.000E+00  1.02481E+03  2.936E+00  4.258E+01  4.339E-01  7.442E-01
   1   13    5     8     2    1.6707E+02  2.2996E-01   1.6684E+02  0.000E+00  0.000E+00  0.000E+00  1.01856E+03  2.932E+00  4.252E+01  4.333E-01  1.769E-01
   1   13    4     8     3    1.6684E+02 -2.2501E+00   1.6909E+02  0.000E+00  0.000E+00  0.000E+00  1.01231E+03  2.939E+00  4.261E+01  4.343E+00 -1.727E-01
   1   13    3     8     4    1.6909E+02 -3.5863E+00   1.7268E+02  0.000E+00  0.000E+00  0.000E+00  1.00608E+03  2.958E+00  4.289E+01  4.371E+00 -2.735E-01
   1   13    2     8     5    1.7268E+02 -2.5930E+00   1.7527E+02  0.000E+00  0.000E+00  0.000E+00  9.99853E+02  2.978E+00  4.318E+01  4.400E+00 -1.964E-01
   1   13    1     8     6    1.7527E+02 -2.0008E+00   1.7727E+02  0.000E+00  0.000E+00  0.000E+00  9.94868E+02  2.993E+00  4.339E+01  2.653E+00 -2.514E-01





UNSATURATED ZONE PACKAGE VOLUMETRIC BUDGET FOR  TIME STEP    30 STRESS PERIOD   25
  ------------------------------------------------------------------------------



     CUMULATIVE VOLUMES      L**3       RATES FOR THIS TIME STEP      L**3/T
     ------------------                 ------------------------

           IN:                                      IN:
           ---                                      ---
        INFILTRATION =  1075778348.8525          INFILTRATION =           4.4075

          OUT:                                     OUT:
          ----                                     ----
              UZF ET =   998480485.7848                UZF ET =           0.7250
        UZF RECHARGE =      797071.6500          UZF RECHARGE =       0.0000E+00

            IN - OUT =    76500791.4178              IN - OUT =           3.6825

          STORAGE:                                 STORAGE:
          --------                                 --------
      STORAGE CHANGE =    76502434.9222        STORAGE CHANGE =           3.6825

 PERCENT DISCREPANCY IS DIFFERENCE BETWEEN IN-OUT MINUS CHANGE IN STORAGE
 DIVIDED BY THE AVERAGE OF IN AND OUT TIMES 100

 PERCENT DISCREPANCY =          -0.00     PERCENT DISCREPANCY =           0.00






1
  VOLUMETRIC BUDGET FOR ENTIRE MODEL AT END OF TIME STEP   30, STRESS PERIOD  25
  ------------------------------------------------------------------------------

     CUMULATIVE VOLUMES      L**3       RATES FOR THIS TIME STEP      L**3/T
     ------------------                 ------------------------

           IN:                                      IN:
           ---                                      ---
               AG WELLS  =   797503936.0000                 AG WELLS  =           0.0000
      DIVERSION SEGMENTS =           0.0000        DIVERSION SEGMENTS =           0.0000
           GW IRRIGATION =           0.0000             GW IRRIGATION =           0.0000
           SW IRRIGATION =           0.0000             SW IRRIGATION =           0.0000
        SYSTEM LOSSES GW =           0.0000          SYSTEM LOSSES GW =           0.0000
        SYSTEM LOSSES SW =           0.0000          SYSTEM LOSSES SW =           0.0000

                TOTAL IN =   797503936.0000                  TOTAL IN =           0.0000

          OUT:                                     OUT:
          ----                                     ----
               AG WELLS  =           0.0000                 AG WELLS  =           0.0000
      DIVERSION SEGMENTS =           0.0000        DIVERSION SEGMENTS =           0.0000
           GW IRRIGATION =   797503936.0000             GW IRRIGATION =           0.0000
           SW IRRIGATION =           0.0000             SW IRRIGATION =           0.0000
        SYSTEM LOSSES GW =           0.0000          SYSTEM LOSSES GW =           0.0000
        SYSTEM LOSSES SW =           0.0000          SYSTEM LOSSES SW =           0.0000

               TOTAL OUT =   797503936.0000                 TOTAL OUT =           0.0000

                IN - OUT =           0.0000                  IN - OUT =           0.0000

     PERCENT DISCREPANCY =           0.00         PERCENT DISCREPANCY =           0.00



1
  VOLUMETRIC BUDGET FOR ENTIRE MODEL AT END OF TIME STEP   30, STRESS PERIOD  25
  ------------------------------------------------------------------------------

     CUMULATIVE VOLUMES      L**3       RATES FOR THIS TIME STEP      L**3/T
     ------------------                 ------------------------

           IN:                                      IN:
           ---                                      ---
             STORAGE     =  1084213376.0000               STORAGE     =           8.1649
       CONSTANT HEAD     =           0.0000         CONSTANT HEAD     =           0.0000
     HEAD DEP BOUNDS     =    18043670.0000       HEAD DEP BOUNDS     =           0.2859
      STREAM LEAKAGE     =   784616832.0000        STREAM LEAKAGE     =          11.6165
        UZF RECHARGE     =      797071.5625          UZF RECHARGE     =           0.0000
               GW ET     =           0.0000                 GW ET     =           0.0000
     SURFACE LEAKAGE     =           0.0000       SURFACE LEAKAGE     =           0.0000
           AG WELLS      =           0.0000             AG WELLS      =           0.0000

                TOTAL IN =  1887670912.0000                  TOTAL IN =          20.0673

          OUT:                                     OUT:
          ----                                     ----
             STORAGE     =   397597696.0000               STORAGE     =           9.3474
       CONSTANT HEAD     =           0.0000         CONSTANT HEAD     =           0.0000
     HEAD DEP BOUNDS     =    18586220.0000       HEAD DEP BOUNDS     =           0.2896
      STREAM LEAKAGE     =   656667520.0000        STREAM LEAKAGE     =          10.4302
        UZF RECHARGE     =           0.0000          UZF RECHARGE     =           0.0000
               GW ET     =    17319432.0000                 GW ET     =           0.0000
     SURFACE LEAKAGE     =           0.0000       SURFACE LEAKAGE     =           0.0000
           AG WELLS      =   797503936.0000             AG WELLS      =           0.0000

               TOTAL OUT =  1887674880.0000                 TOTAL OUT =          20.0673

                IN - OUT =       -3968.0000                  IN - OUT =       9.5367E-06

     PERCENT DISCREPANCY =          -0.00         PERCENT DISCREPANCY =           0.00






         TIME SUMMARY AT END OF TIME STEP   30 IN STRESS PERIOD   25
                    SECONDS     MINUTES      HOURS       DAYS        YEARS
                    -----------------------------------------------------------
   TIME STEP LENGTH  87667.      1461.1      24.352      1.0147     2.77799E-03
 STRESS PERIOD TIME 2.63000E+06  43833.      730.56      30.440     8.33397E-02
         TOTAL TIME 6.32067E+07 1.05345E+06  17557.      731.56      2.0029    
1
1
                            STRESS PERIOD NO.   26, LENGTH =   2630000.    
                            -----------------------------------------------

                              NUMBER OF TIME STEPS =    30

                               MULTIPLIER FOR DELT =     1.000

                            INITIAL TIME STEP SIZE =   87666.66    

 REUSING NON-PARAMETER GHB CELLS FROM LAST STRESS PERIOD

      2 GHB CELLS

 REUSING STREAM SEGMENT DATA FROM LAST STRESS PERIOD



            AREAL INFILTRATION RATE
 READING ON UNIT   19 WITH FORMAT: (10F4.0)            

            1           2           3           4           5           6           7           8           9          10
 ........................................................................................................................
   1   1.2000E-09   0.000       0.000       0.000       0.000       0.000       0.000       0.000       0.000       0.000    
   2   2.1000E-09  2.0000E-09  8.0000E-10  8.5000E-09   0.000       0.000       0.000       0.000       0.000       0.000    
   3   5.0000E-10  1.1000E-09  8.8000E-09  5.5000E-09   0.000       0.000       0.000       0.000       0.000       0.000    
   4   8.5000E-09  1.1000E-09  1.1000E-09  1.1000E-09  2.0000E-09   0.000       0.000       0.000       0.000       0.000    
   5   8.5000E-09  1.1000E-09  1.1000E-09  1.1000E-09  1.1000E-09   0.000       0.000       0.000       0.000       0.000    
   6   8.5000E-09  5.2000E-09  2.1000E-09  1.1000E-09  1.5000E-09   0.000       0.000       0.000       0.000       0.000    
   7   8.5000E-09  5.2000E-09  2.1000E-09  1.2000E-09  2.0000E-09   0.000       0.000       0.000       0.000       0.000    
   8   5.0000E-10  5.2000E-09  2.1000E-09  1.2000E-09  5.0000E-09   0.000       0.000       0.000       0.000       0.000    
   9   5.0000E-10  5.2000E-09  2.1000E-09  1.2000E-09  5.0000E-09   0.000       0.000       0.000       0.000       0.000    
  10   5.0000E-10  5.2000E-09  2.1000E-09  1.2000E-09  5.8000E-09   0.000       0.000       0.000       0.000       0.000    
  11   1.0000E-10  1.1000E-09  1.1000E-09  1.2000E-09  5.0000E-09   0.000       0.000       0.000       0.000       0.000    
  12   1.1000E-09  1.1000E-09  1.1000E-09  1.1000E-09  2.0000E-09   0.000       0.000       0.000       0.000       0.000    
  13   1.1000E-09  2.2000E-09  2.2000E-09  2.1000E-09  1.0000E-09   0.000       0.000       0.000       0.000       0.000    
  14   2.0000E-10  5.5000E-09  5.5000E-09  5.2000E-09  1.0000E-09   0.000       0.000       0.000       0.000       0.000    
  15    0.000      8.8000E-09  8.8000E-09   0.000       0.000       0.000       0.000       0.000       0.000       0.000    

                  ET RATE =  5.000000E-10

 USING ET EXTINCTION DEPTH FROM PREVIOUS STRESS PERIOD. CURRENT PERIOD IS:      26

 USING EXTINCTION WATER CONTENT FROM PREVIOUS STRESS PERIOD. CURRENT PERIOD IS:      26

 USING AIR ENTRY PRESSURE FROM PREVIOUS STRESS PERIOD. CURRENT PERIOD IS:      26

 USING ROOT PRESSURE HEAD FROM PREVIOUS STRESS PERIOD. CURRENT PERIOD IS:      26

 USING ROOT ACTIVITY FROM PREVIOUS STRESS PERIOD. CURRENT PERIOD IS:      26

 PROCESSING AG STRESS PERIOD DATA

 READING AG STRESS PERIOD DATA

 READING IRRIGATION WELL

 END PROCESSING AG STRESS PERIOD DATA OPTIONS
 
 SOLVING FOR HEAD 
                                                   Max.-Head-Change                         Max.-Flux-Residual
  Residual-Control   Outer-Iter.   Inner-Iter.     Column Row Layer    Maximum-Head-Change  Column Row Layer    Maximum-Flux-Residual          L2-NORM 
          0                 1           2             4    7     1       0.2351704392E-01       4    7    1         0.1235572794E+01      0.2851297332E+01
          0                 2           2             4    7     1      -0.2287578851E-02       4    7    1        -0.1235580707E+00      0.2851246000E+00
          0                 3           2             4    7     1       0.1557755243E-03       4    7    1         0.8649061200E-02      0.1995821150E-01
          0                 4           1             4    7     1      -0.6198454346E-05       4    7    1        -0.3537471305E-03      0.8162508275E-03

    ------------------------------------------------
       NWT REQUIRED            4 OUTER ITERATIONS 
       AND A TOTAL OF          7 INNER ITERATIONS.
    ------------------------------------------------

 NO OUTPUT CONTROL FOR STRESS PERIOD   26   TIME STEP    1
 
 SOLVING FOR HEAD 
                                                   Max.-Head-Change                         Max.-Flux-Residual
  Residual-Control   Outer-Iter.   Inner-Iter.     Column Row Layer    Maximum-Head-Change  Column Row Layer    Maximum-Flux-Residual          L2-NORM 
          0                 1           2             4    7     1       0.2325822979E-01       4    7    1         0.1221905019E+01      0.2826374249E+01
          0                 2           2             4    7     1      -0.2262403015E-02       4    7    1        -0.1221912745E+00      0.2826325794E+00
          0                 3           2             4    7     1       0.1540611457E-03       4    7    1         0.8553385603E-02      0.1978375746E-01
          0                 4           1             4    7     1      -0.6130237559E-05       4    7    1        -0.3498339852E-03      0.8091331177E-03

    ------------------------------------------------
       NWT REQUIRED            4 OUTER ITERATIONS 
       AND A TOTAL OF          7 INNER ITERATIONS.
    ------------------------------------------------

 NO OUTPUT CONTROL FOR STRESS PERIOD   26   TIME STEP    2
 
 SOLVING FOR HEAD 
                                                   Max.-Head-Change                         Max.-Flux-Residual
  Residual-Control   Outer-Iter.   Inner-Iter.     Column Row Layer    Maximum-Head-Change  Column Row Layer    Maximum-Flux-Residual          L2-NORM 
          0                 1           2             4    7     1       0.2300369166E-01       4    7    1         0.1208463858E+01      0.2801823724E+01
          0                 2           2             4    7     1      -0.2237643126E-02       4    7    1        -0.1208471402E+00      0.2801778974E+00
          0                 3           2             4    7     1       0.1523750918E-03       4    7    1         0.8459296322E-02      0.1961201275E-01
          0                 4           1             4    7     1      -0.6063148216E-05       4    7    1        -0.3459857435E-03      0.8021046420E-03

    ------------------------------------------------
       NWT REQUIRED            4 OUTER ITERATIONS 
       AND A TOTAL OF          7 INNER ITERATIONS.
    ------------------------------------------------

 NO OUTPUT CONTROL FOR STRESS PERIOD   26   TIME STEP    3
 
 SOLVING FOR HEAD 
                                                   Max.-Head-Change                         Max.-Flux-Residual
  Residual-Control   Outer-Iter.   Inner-Iter.     Column Row Layer    Maximum-Head-Change  Column Row Layer    Maximum-Flux-Residual          L2-NORM 
          0                 1           2             4    7     1       0.2275306312E-01       4    7    1         0.1195229752E+01      0.2777624705E+01
          0                 2           2             4    7     1      -0.2213263540E-02       4    7    1        -0.1195237118E+00      0.2777582404E+00
          0                 3           2             4    7     1       0.1507149349E-03       4    7    1         0.8366656462E-02      0.1944264787E-01
          0                 4           1             4    7     1      -0.5997088920E-05       4    7    1        -0.3421967592E-03      0.7951888839E-03

    ------------------------------------------------
       NWT REQUIRED            4 OUTER ITERATIONS 
       AND A TOTAL OF          7 INNER ITERATIONS.
    ------------------------------------------------

 NO OUTPUT CONTROL FOR STRESS PERIOD   26   TIME STEP    4
 
 SOLVING FOR HEAD 
                                                   Max.-Head-Change                         Max.-Flux-Residual
  Residual-Control   Outer-Iter.   Inner-Iter.     Column Row Layer    Maximum-Head-Change  Column Row Layer    Maximum-Flux-Residual          L2-NORM 
          0                 1           2             4    7     1       0.2250653375E-01       4    7    1         0.1182212999E+01      0.2753772321E+01
          0                 2           2             4    7     1      -0.2189282699E-02       4    7    1        -0.1182220192E+00      0.2753732658E+00
          0                 3           2             4    7     1       0.1490819312E-03       4    7    1         0.8275538121E-02      0.1927569425E-01
          0                 4           1             4    7     1      -0.5932110212E-05       4    7    1        -0.3384700144E-03      0.7883476052E-03

    ------------------------------------------------
       NWT REQUIRED            4 OUTER ITERATIONS 
       AND A TOTAL OF          7 INNER ITERATIONS.
    ------------------------------------------------

 NO OUTPUT CONTROL FOR STRESS PERIOD   26   TIME STEP    5
 
 SOLVING FOR HEAD 
                                                   Max.-Head-Change                         Max.-Flux-Residual
  Residual-Control   Outer-Iter.   Inner-Iter.     Column Row Layer    Maximum-Head-Change  Column Row Layer    Maximum-Flux-Residual          L2-NORM 
          0                 1           2             4    7     1       0.2226401039E-01       4    7    1         0.1169408782E+01      0.2730266228E+01
          0                 2           2             4    7     1      -0.2165691699E-02       4    7    1        -0.1169415807E+00      0.2730365802E+00
          0                 3           2             4    7     1       0.1474754737E-03       4    7    1         0.8185907539E-02      0.1911233050E-01
          0                 4           1             4    7     1      -0.5868187108E-05       4    7    1        -0.3348040991E-03      0.7816682045E-03

    ------------------------------------------------
       NWT REQUIRED            4 OUTER ITERATIONS 
       AND A TOTAL OF          7 INNER ITERATIONS.
    ------------------------------------------------

 NO OUTPUT CONTROL FOR STRESS PERIOD   26   TIME STEP    6
 
 SOLVING FOR HEAD 
                                                   Max.-Head-Change                         Max.-Flux-Residual
  Residual-Control   Outer-Iter.   Inner-Iter.     Column Row Layer    Maximum-Head-Change  Column Row Layer    Maximum-Flux-Residual          L2-NORM 
          0                 1           2             4    7     1       0.2202513940E-01       4    7    1         0.1156797610E+01      0.2707082188E+01
          0                 2           2             4    7     1      -0.2142455663E-02       4    7    1        -0.1156804471E+00      0.2707047198E+00
          0                 3           2             4    7     1       0.1458931883E-03       4    7    1         0.8097628299E-02      0.1894898530E-01
          0                 4           1             4    7     1      -0.5805227047E-05       4    7    1        -0.3311934872E-03      0.7750032302E-03

    ------------------------------------------------
       NWT REQUIRED            4 OUTER ITERATIONS 
       AND A TOTAL OF          7 INNER ITERATIONS.
    ------------------------------------------------

 NO OUTPUT CONTROL FOR STRESS PERIOD   26   TIME STEP    7
 
 SOLVING FOR HEAD 
                                                   Max.-Head-Change                         Max.-Flux-Residual
  Residual-Control   Outer-Iter.   Inner-Iter.     Column Row Layer    Maximum-Head-Change  Column Row Layer    Maximum-Flux-Residual          L2-NORM 
          0                 1           2             4    7     1       0.2179011206E-01       4    7    1         0.1144390475E+01      0.2684191943E+01
          0                 2           2             4    7     1      -0.2119593676E-02       4    7    1        -0.1144397176E+00      0.2684159246E+00
          0                 3           2             4    7     1       0.1443363739E-03       4    7    1         0.8010777337E-02      0.1878877365E-01
          0                 4           1             4    7     1      -0.5743279994E-05       4    7    1        -0.3276412770E-03      0.7684480361E-03

    ------------------------------------------------
       NWT REQUIRED            4 OUTER ITERATIONS 
       AND A TOTAL OF          7 INNER ITERATIONS.
    ------------------------------------------------

 NO OUTPUT CONTROL FOR STRESS PERIOD   26   TIME STEP    8
 
 SOLVING FOR HEAD 
                                                   Max.-Head-Change                         Max.-Flux-Residual
  Residual-Control   Outer-Iter.   Inner-Iter.     Column Row Layer    Maximum-Head-Change  Column Row Layer    Maximum-Flux-Residual          L2-NORM 
          0                 1           2             4    7     1       0.2155884530E-01       4    7    1         0.1132182618E+01      0.2661623811E+01
          0                 2           2             4    7     1      -0.2097097497E-02       4    7    1        -0.1132189165E+00      0.2661591988E+00
          0                 3           2             4    7     1       0.1428044699E-03       4    7    1         0.7925321379E-02      0.1863081102E-01
          0                 4           1             4    7     1      -0.5682323729E-05       4    7    1        -0.3241461202E-03      0.7620012090E-03

    ------------------------------------------------
       NWT REQUIRED            4 OUTER ITERATIONS 
       AND A TOTAL OF          7 INNER ITERATIONS.
    ------------------------------------------------

 NO OUTPUT CONTROL FOR STRESS PERIOD   26   TIME STEP    9
 
 SOLVING FOR HEAD 
                                                   Max.-Head-Change                         Max.-Flux-Residual
  Residual-Control   Outer-Iter.   Inner-Iter.     Column Row Layer    Maximum-Head-Change  Column Row Layer    Maximum-Flux-Residual          L2-NORM 
          0                 1           2             4    7     1       0.2133112061E-01       4    7    1         0.1120162414E+01      0.2639371983E+01
          0                 2           2             4    7     1      -0.2074945871E-02       4    7    1        -0.1120168810E+00      0.2639341828E+00
          0                 3           2             4    7     1       0.1412960284E-03       4    7    1         0.7841178992E-02      0.1847507636E-01
          0                 4           1             4    7     1      -0.5622301724E-05       4    7    1        -0.3207047005E-03      0.7556018856E-03

    ------------------------------------------------
       NWT REQUIRED            4 OUTER ITERATIONS 
       AND A TOTAL OF          7 INNER ITERATIONS.
    ------------------------------------------------

 NO OUTPUT CONTROL FOR STRESS PERIOD   26   TIME STEP   10
 
 SOLVING FOR HEAD 
                                                   Max.-Head-Change                         Max.-Flux-Residual
  Residual-Control   Outer-Iter.   Inner-Iter.     Column Row Layer    Maximum-Head-Change  Column Row Layer    Maximum-Flux-Residual          L2-NORM 
          0                 1           2             4    7     1       0.2110699619E-01       4    7    1         0.1108333187E+01      0.2617430450E+01
          0                 2           2             4    7     1      -0.2053144459E-02       4    7    1        -0.1108339437E+00      0.2617401588E+00
          0                 3           2             4    7     1       0.1398114353E-03       4    7    1         0.7758373495E-02      0.1832151940E-01
          0                 4           1             4    7     1      -0.5563228486E-05       4    7    1        -0.3173179452E-03      0.7494060509E-03

    ------------------------------------------------
       NWT REQUIRED            4 OUTER ITERATIONS 
       AND A TOTAL OF          7 INNER ITERATIONS.
    ------------------------------------------------

 NO OUTPUT CONTROL FOR STRESS PERIOD   26   TIME STEP   11
 
 SOLVING FOR HEAD 
                                                   Max.-Head-Change                         Max.-Flux-Residual
  Residual-Control   Outer-Iter.   Inner-Iter.     Column Row Layer    Maximum-Head-Change  Column Row Layer    Maximum-Flux-Residual          L2-NORM 
          0                 1           2             4    7     1       0.2088626075E-01       4    7    1         0.1096683301E+01      0.2595791573E+01
          0                 2           2             4    7     1      -0.2031672707E-02       4    7    1        -0.1096689407E+00      0.2595764003E+00
          0                 3           2             4    7     1       0.1383492909E-03       4    7    1         0.7676823389E-02      0.1817006801E-01
          0                 4           1             4    7     1      -0.5505048638E-05       4    7    1        -0.3139825549E-03      0.7431473331E-03

    ------------------------------------------------
       NWT REQUIRED            4 OUTER ITERATIONS 
       AND A TOTAL OF          7 INNER ITERATIONS.
    ------------------------------------------------

 NO OUTPUT CONTROL FOR STRESS PERIOD   26   TIME STEP   12
 
 SOLVING FOR HEAD 
                                                   Max.-Head-Change                         Max.-Flux-Residual
  Residual-Control   Outer-Iter.   Inner-Iter.     Column Row Layer    Maximum-Head-Change  Column Row Layer    Maximum-Flux-Residual          L2-NORM 
          0                 1           2             4    7     1       0.2066897630E-01       4    7    1         0.1085216454E+01      0.2574450462E+01
          0                 2           2             4    7     1      -0.2010536650E-02       4    7    1        -0.1085222421E+00      0.2574416237E+00
          0                 3           2             4    7     1       0.1369100056E-03       4    7    1         0.7596554585E-02      0.1802064182E-01
          0                 4           1             4    7     1      -0.5447777722E-05       4    7    1        -0.3106995425E-03      0.7370234023E-03

    ------------------------------------------------
       NWT REQUIRED            4 OUTER ITERATIONS 
       AND A TOTAL OF          7 INNER ITERATIONS.
    ------------------------------------------------

 NO OUTPUT CONTROL FOR STRESS PERIOD   26   TIME STEP   13
 
 SOLVING FOR HEAD 
                                                   Max.-Head-Change                         Max.-Flux-Residual
  Residual-Control   Outer-Iter.   Inner-Iter.     Column Row Layer    Maximum-Head-Change  Column Row Layer    Maximum-Flux-Residual          L2-NORM 
          0                 1           2             4    7     1       0.2045507185E-01       4    7    1         0.1073928536E+01      0.2553408972E+01
          0                 2           2             4    7     1      -0.1989729379E-02       4    7    1        -0.1073934368E+00      0.2553383599E+00
          0                 3           2             4    7     1       0.1354931096E-03       4    7    1         0.7517538307E-02      0.1787342620E-01
          0                 4           1             4    7     1      -0.5391398125E-05       4    7    1        -0.3074677734E-03      0.7310236632E-03

    ------------------------------------------------
       NWT REQUIRED            4 OUTER ITERATIONS 
       AND A TOTAL OF          7 INNER ITERATIONS.
    ------------------------------------------------

 NO OUTPUT CONTROL FOR STRESS PERIOD   26   TIME STEP   14
 
 SOLVING FOR HEAD 
                                                   Max.-Head-Change                         Max.-Flux-Residual
  Residual-Control   Outer-Iter.   Inner-Iter.     Column Row Layer    Maximum-Head-Change  Column Row Layer    Maximum-Flux-Residual          L2-NORM 
          0                 1           2             4    7     1       0.2024446905E-01       4    7    1         0.1062815865E+01      0.2532648045E+01
          0                 2           2             4    7     1      -0.1969243273E-02       4    7    1        -0.1062821565E+00      0.2532623358E+00
          0                 3           2             4    7     1       0.1340980835E-03       4    7    1         0.7439748772E-02      0.1772810141E-01
          0                 4           1             4    7     1      -0.5335888777E-05       4    7    1        -0.3042861692E-03      0.7250678599E-03

    ------------------------------------------------
       NWT REQUIRED            4 OUTER ITERATIONS 
       AND A TOTAL OF          7 INNER ITERATIONS.
    ------------------------------------------------

 NO OUTPUT CONTROL FOR STRESS PERIOD   26   TIME STEP   15
 
 SOLVING FOR HEAD 
                                                   Max.-Head-Change                         Max.-Flux-Residual
  Residual-Control   Outer-Iter.   Inner-Iter.     Column Row Layer    Maximum-Head-Change  Column Row Layer    Maximum-Flux-Residual          L2-NORM 
          0                 1           2             4    7     1       0.2003696810E-01       4    7    1         0.1051867050E+01      0.2512171683E+01
          0                 2           2             4    7     1      -0.1949058898E-02       4    7    1        -0.1051872621E+00      0.2512147739E+00
          0                 3           2             4    7     1       0.1327236041E-03       4    7    1         0.7363106243E-02      0.1758479039E-01
          0                 4           1             4    7     1      -0.5281196604E-05       4    7    1        -0.3011514875E-03      0.7192238119E-03

    ------------------------------------------------
       NWT REQUIRED            4 OUTER ITERATIONS 
       AND A TOTAL OF          7 INNER ITERATIONS.
    ------------------------------------------------

 NO OUTPUT CONTROL FOR STRESS PERIOD   26   TIME STEP   16
 
 SOLVING FOR HEAD 
                                                   Max.-Head-Change                         Max.-Flux-Residual
  Residual-Control   Outer-Iter.   Inner-Iter.     Column Row Layer    Maximum-Head-Change  Column Row Layer    Maximum-Flux-Residual          L2-NORM 
          0                 1           2             4    7     1       0.1983277083E-01       4    7    1         0.1041093719E+01      0.2491971050E+01
          0                 2           2             4    7     1      -0.1929195887E-02       4    7    1        -0.1041099165E+00      0.2491947710E+00
          0                 3           2             4    7     1       0.1313710086E-03       4    7    1         0.7287692151E-02      0.1744338884E-01
          0                 4           1             4    7     1      -0.5227375602E-05       4    7    1        -0.2980670386E-03      0.7134228475E-03

    ------------------------------------------------
       NWT REQUIRED            4 OUTER ITERATIONS 
       AND A TOTAL OF          7 INNER ITERATIONS.
    ------------------------------------------------

 NO OUTPUT CONTROL FOR STRESS PERIOD   26   TIME STEP   17
 
 SOLVING FOR HEAD 
                                                   Max.-Head-Change                         Max.-Flux-Residual
  Residual-Control   Outer-Iter.   Inner-Iter.     Column Row Layer    Maximum-Head-Change  Column Row Layer    Maximum-Flux-Residual          L2-NORM 
          0                 1           2             4    7     1       0.1963153568E-01       4    7    1         0.1030477019E+01      0.2472043931E+01
          0                 2           2             4    7     1      -0.1909621014E-02       4    7    1        -0.1030482343E+00      0.2472021455E+00
          0                 3           2             4    7     1       0.1300380344E-03       4    7    1         0.7213374481E-02      0.1730390693E-01
          0                 4           1             4    7     1      -0.5174335511E-05       4    7    1        -0.2950274593E-03      0.7077157711E-03

    ------------------------------------------------
       NWT REQUIRED            4 OUTER ITERATIONS 
       AND A TOTAL OF          7 INNER ITERATIONS.
    ------------------------------------------------

 NO OUTPUT CONTROL FOR STRESS PERIOD   26   TIME STEP   18
 
 SOLVING FOR HEAD 
                                                   Max.-Head-Change                         Max.-Flux-Residual
  Residual-Control   Outer-Iter.   Inner-Iter.     Column Row Layer    Maximum-Head-Change  Column Row Layer    Maximum-Flux-Residual          L2-NORM 
          0                 1           2             4    7     1       0.1943333906E-01       4    7    1         0.1020021229E+01      0.2452382148E+01
          0                 2           2             4    7     1      -0.1890341710E-02       4    7    1        -0.1020026435E+00      0.2452360343E+00
          0                 3           2             4    7     1       0.1287251867E-03       4    7    1         0.7140183194E-02      0.1716628942E-01
          0                 4           1             4    7     1      -0.5122096017E-05       4    7    1        -0.2920339211E-03      0.7020793482E-03

    ------------------------------------------------
       NWT REQUIRED            4 OUTER ITERATIONS 
       AND A TOTAL OF          7 INNER ITERATIONS.
    ------------------------------------------------

 NO OUTPUT CONTROL FOR STRESS PERIOD   26   TIME STEP   19
 
 SOLVING FOR HEAD 
                                                   Max.-Head-Change                         Max.-Flux-Residual
  Residual-Control   Outer-Iter.   Inner-Iter.     Column Row Layer    Maximum-Head-Change  Column Row Layer    Maximum-Flux-Residual          L2-NORM 
          0                 1           2             4    7     1       0.1923824915E-01       4    7    1         0.1009730312E+01      0.2432983695E+01
          0                 2           2             4    7     1      -0.1871364611E-02       4    7    1        -0.1009735403E+00      0.2432962492E+00
          0                 3           2             4    7     1       0.1274329186E-03       4    7    1         0.7068146062E-02      0.1703051843E-01
          0                 4           1             4    7     1      -0.5070675656E-05       4    7    1        -0.2890876021E-03      0.6965143957E-03

    ------------------------------------------------
       NWT REQUIRED            4 OUTER ITERATIONS 
       AND A TOTAL OF          7 INNER ITERATIONS.
    ------------------------------------------------

 NO OUTPUT CONTROL FOR STRESS PERIOD   26   TIME STEP   20
 
 SOLVING FOR HEAD 
                                                   Max.-Head-Change                         Max.-Flux-Residual
  Residual-Control   Outer-Iter.   Inner-Iter.     Column Row Layer    Maximum-Head-Change  Column Row Layer    Maximum-Flux-Residual          L2-NORM 
          0                 1           2             4    7     1       0.1904592960E-01       4    7    1         0.9995858133E+00      0.2413837321E+01
          0                 2           2             4    7     1      -0.1852709316E-02       4    7    1        -0.9995907907E-01      0.2414471442E+00
          0                 3           2             4    7     1       0.1261625638E-03       4    7    1         0.6997133866E-02      0.1690108094E-01
          0                 4           1             4    7     1      -0.5020127156E-05       4    7    1        -0.2861832049E-03      0.6912496407E-03

    ------------------------------------------------
       NWT REQUIRED            4 OUTER ITERATIONS 
       AND A TOTAL OF          7 INNER ITERATIONS.
    ------------------------------------------------

 NO OUTPUT CONTROL FOR STRESS PERIOD   26   TIME STEP   21
 
 SOLVING FOR HEAD 
                                                   Max.-Head-Change                         Max.-Flux-Residual
  Residual-Control   Outer-Iter.   Inner-Iter.     Column Row Layer    Maximum-Head-Change  Column Row Layer    Maximum-Flux-Residual          L2-NORM 
          0                 1           2             4    7     1       0.1885642616E-01       4    7    1         0.9895968237E+00      0.2394893561E+01
          0                 2           2             4    7     1      -0.1834223330E-02       4    7    1        -0.9896016943E-01      0.2394873392E+00
          0                 3           2             4    7     1       0.1249037379E-03       4    7    1         0.6927210240E-02      0.1676391198E-01
          0                 4           1             4    7     1      -0.4970036864E-05       4    7    1        -0.2833233111E-03      0.6856281545E-03

    ------------------------------------------------
       NWT REQUIRED            4 OUTER ITERATIONS 
       AND A TOTAL OF          7 INNER ITERATIONS.
    ------------------------------------------------

 NO OUTPUT CONTROL FOR STRESS PERIOD   26   TIME STEP   22
 
 SOLVING FOR HEAD 
                                                   Max.-Head-Change                         Max.-Flux-Residual
  Residual-Control   Outer-Iter.   Inner-Iter.     Column Row Layer    Maximum-Head-Change  Column Row Layer    Maximum-Flux-Residual          L2-NORM 
          0                 1           2             4    7     1       0.1866970175E-01       4    7    1         0.9797520921E+00      0.2376179461E+01
          0                 2           2             4    7     1      -0.1816059980E-02       4    7    1        -0.9797568573E-01      0.2376159815E+00
          0                 3           2             4    7     1       0.1236668829E-03       4    7    1         0.6858296471E-02      0.1663292203E-01
          0                 4           1             4    7     1      -0.4920821311E-05       4    7    1        -0.2805047352E-03      0.6802706146E-03

    ------------------------------------------------
       NWT REQUIRED            4 OUTER ITERATIONS 
       AND A TOTAL OF          7 INNER ITERATIONS.
    ------------------------------------------------

 NO OUTPUT CONTROL FOR STRESS PERIOD   26   TIME STEP   23
 
 SOLVING FOR HEAD 
                                                   Max.-Head-Change                         Max.-Flux-Residual
  Residual-Control   Outer-Iter.   Inner-Iter.     Column Row Layer    Maximum-Head-Change  Column Row Layer    Maximum-Flux-Residual          L2-NORM 
          0                 1           2             4    7     1       0.1848565822E-01       4    7    1         0.9700486599E+00      0.2357712350E+01
          0                 2           2             4    7     1      -0.1798157409E-02       4    7    1        -0.9700533223E-01      0.2357692844E+00
          0                 3           2             4    7     1       0.1224477854E-03       4    7    1         0.6790371782E-02      0.1650364540E-01
          0                 4           1             4    7     1      -0.4872312297E-05       4    7    1        -0.2777266047E-03      0.6749795308E-03

    ------------------------------------------------
       NWT REQUIRED            4 OUTER ITERATIONS 
       AND A TOTAL OF          7 INNER ITERATIONS.
    ------------------------------------------------

 NO OUTPUT CONTROL FOR STRESS PERIOD   26   TIME STEP   24
 
 SOLVING FOR HEAD 
                                                   Max.-Head-Change                         Max.-Flux-Residual
  Residual-Control   Outer-Iter.   Inner-Iter.     Column Row Layer    Maximum-Head-Change  Column Row Layer    Maximum-Flux-Residual          L2-NORM 
          0                 1           2             4    7     1       0.1830424442E-01       4    7    1         0.9604842263E+00      0.2339490793E+01
          0                 2           2             4    7     1      -0.1780510644E-02       4    7    1        -0.9604887879E-01      0.2339471756E+00
          0                 3           1             4    7     1       0.1212461109E-03       4    7    1         0.6723420097E-02      0.1637610904E-01
          0                 4           1             4    7     1      -0.4824499920E-05       4    7    1        -0.2749882917E-03      0.6697643943E-03

    ------------------------------------------------
       NWT REQUIRED            4 OUTER ITERATIONS 
       AND A TOTAL OF          6 INNER ITERATIONS.
    ------------------------------------------------

 NO OUTPUT CONTROL FOR STRESS PERIOD   26   TIME STEP   25
 
 SOLVING FOR HEAD 
                                                   Max.-Head-Change                         Max.-Flux-Residual
  Residual-Control   Outer-Iter.   Inner-Iter.     Column Row Layer    Maximum-Head-Change  Column Row Layer    Maximum-Flux-Residual          L2-NORM 
          0                 1           2             4    7     1       0.1812554729E-01       4    7    1         0.9510634720E+00      0.2321508140E+01
          0                 2           2             4    7     1      -0.1763128140E-02       4    7    1        -0.9510679355E-01      0.2321489316E+00
          0                 3           1             4    7     1       0.1200624283E-03       4    7    1         0.6657474207E-02      0.1625022902E-01
          0                 4           1             4    7     1      -0.4777399837E-05       4    7    1        -0.2722910879E-03      0.6646282741E-03

    ------------------------------------------------
       NWT REQUIRED            4 OUTER ITERATIONS 
       AND A TOTAL OF          6 INNER ITERATIONS.
    ------------------------------------------------

 NO OUTPUT CONTROL FOR STRESS PERIOD   26   TIME STEP   26
 
 SOLVING FOR HEAD 
                                                   Max.-Head-Change                         Max.-Flux-Residual
  Residual-Control   Outer-Iter.   Inner-Iter.     Column Row Layer    Maximum-Head-Change  Column Row Layer    Maximum-Flux-Residual          L2-NORM 
          0                 1           2             4    7     1       0.1794937539E-01       4    7    1         0.9417762407E+00      0.2303753976E+01
          0                 2           2             4    7     1      -0.1745991276E-02       4    7    1        -0.9417806087E-01      0.2303735415E+00
          0                 3           1             4    7     1       0.1188954727E-03       4    7    1         0.6592462982E-02      0.1612595004E-01
          0                 4           1             4    7     1      -0.4730965537E-05       4    7    1        -0.2696321294E-03      0.6595192947E-03

    ------------------------------------------------
       NWT REQUIRED            4 OUTER ITERATIONS 
       AND A TOTAL OF          6 INNER ITERATIONS.
    ------------------------------------------------

 NO OUTPUT CONTROL FOR STRESS PERIOD   26   TIME STEP   27
 
 SOLVING FOR HEAD 
                                                   Max.-Head-Change                         Max.-Flux-Residual
  Residual-Control   Outer-Iter.   Inner-Iter.     Column Row Layer    Maximum-Head-Change  Column Row Layer    Maximum-Flux-Residual          L2-NORM 
          0                 1           2             4    7     1       0.1777568428E-01       4    7    1         0.9326199380E+00      0.2286231524E+01
          0                 2           2             4    7     1      -0.1729095728E-02       4    7    1        -0.9326242126E-01      0.2286213151E+00
          0                 3           1             4    7     1       0.1177449500E-03       4    7    1         0.6528368267E-02      0.1600329408E-01
          0                 4           1             4    7     1      -0.4685185277E-05       4    7    1        -0.2670106596E-03      0.6545254479E-03

    ------------------------------------------------
       NWT REQUIRED            4 OUTER ITERATIONS 
       AND A TOTAL OF          6 INNER ITERATIONS.
    ------------------------------------------------

 NO OUTPUT CONTROL FOR STRESS PERIOD   26   TIME STEP   28
 
 SOLVING FOR HEAD 
                                                   Max.-Head-Change                         Max.-Flux-Residual
  Residual-Control   Outer-Iter.   Inner-Iter.     Column Row Layer    Maximum-Head-Change  Column Row Layer    Maximum-Flux-Residual          L2-NORM 
          0                 1           2             4    7     1       0.1760456097E-01       4    7    1         0.9235995926E+00      0.2268936832E+01
          0                 2           2             4    7     1      -0.1712449960E-02       4    7    1        -0.9236037760E-01      0.2268918692E+00
          0                 3           1             4    7     1       0.1166114360E-03       4    7    1         0.6465225268E-02      0.1588224490E-01
          0                 4           1             4    7     1      -0.4640081507E-05       4    7    1        -0.2644280919E-03      0.6495797707E-03

    ------------------------------------------------
       NWT REQUIRED            4 OUTER ITERATIONS 
       AND A TOTAL OF          6 INNER ITERATIONS.
    ------------------------------------------------

 NO OUTPUT CONTROL FOR STRESS PERIOD   26   TIME STEP   29
 
 SOLVING FOR HEAD 
                                                   Max.-Head-Change                         Max.-Flux-Residual
  Residual-Control   Outer-Iter.   Inner-Iter.     Column Row Layer    Maximum-Head-Change  Column Row Layer    Maximum-Flux-Residual          L2-NORM 
          0                 1           2             4    7     1       0.1743581918E-01       4    7    1         0.9147050510E+00      0.2251858195E+01
          0                 2           2             4    7     1      -0.1696035852E-02       4    7    1        -0.9147091451E-01      0.2251840492E+00
          0                 3           1             4    7     1       0.1154936974E-03       4    7    1         0.6402962900E-02      0.1576271825E-01
          0                 4           1             4    7     1      -0.4595605873E-05       4    7    1        -0.2618815640E-03      0.6446671272E-03

    ------------------------------------------------
       NWT REQUIRED            4 OUTER ITERATIONS 
       AND A TOTAL OF          6 INNER ITERATIONS.
    ------------------------------------------------

 NO OUTPUT CONTROL FOR STRESS PERIOD   26   TIME STEP   30



 STREAM LISTING     PERIOD     26   STEP       30

 LAYER ROW COL. STREAM  RCH.  FLOW INTO     FLOW TO   FLOW OUT OF   OVRLND.     DIRECT     STREAM       STREAM     STREAM     STREAM   STREAMBED  STREAMBED
                SEG.NO.  NO.  STRM. RCH.    AQUIFER    STRM. RCH.    RUNOFF     PRECIP       ET          HEAD       DEPTH      WIDTH   CONDCTNC.   GRADIENT

   1    1    1     1     1    1.9000E+01  2.1427E-01   1.8786E+01  0.000E+00  0.000E+00  0.000E+00  1.09413E+03  1.082E+00  1.166E+01  5.249E-02  1.361E+00
   1    2    2     1     2    1.8786E+01  3.3054E-01   1.8455E+01  0.000E+00  0.000E+00  0.000E+00  1.08914E+03  1.077E+00  1.158E+01  8.107E-02  1.359E+00
   1    3    3     1     3    1.8455E+01  2.8064E-01   1.8175E+01  0.000E+00  0.000E+00  0.000E+00  1.08349E+03  1.072E+00  1.149E+01  6.892E-02  1.357E+00
   1    3    4     1     4    1.8175E+01  2.5740E-01   1.7917E+01  0.000E+00  0.000E+00  0.000E+00  1.07848E+03  1.068E+00  1.140E+01  6.328E-02  1.356E+00
   1    4    5     2     1    1.5917E+01  3.0542E-01   1.5612E+01  0.000E+00  0.000E+00  0.000E+00  1.07285E+03  9.157E-01  1.200E+01  7.800E-02  1.305E+00
   1    5    6     2     2    1.5612E+01  2.3438E-01   1.5377E+01  0.000E+00  0.000E+00  0.000E+00  1.06742E+03  9.063E-01  1.200E+01  6.000E-02  1.302E+00
   1    6    6     2     3    1.5377E+01  2.3388E-01   1.5143E+01  0.000E+00  0.000E+00  0.000E+00  1.06269E+03  8.980E-01  1.200E+01  6.000E-02  1.299E+00
   1    7    6     2     4    1.5143E+01  2.3338E-01   1.4910E+01  0.000E+00  0.000E+00  0.000E+00  1.05797E+03  8.897E-01  1.200E+01  6.000E-02  1.297E+00
   1    8    6     2     5    1.4910E+01  2.3289E-01   1.4677E+01  0.000E+00  0.000E+00  0.000E+00  1.05324E+03  8.814E-01  1.200E+01  6.000E-02  1.294E+00
   1    3    5     3     1    2.0000E+00  2.8252E-01   1.7175E+00  0.000E+00  0.000E+00  0.000E+00  1.07555E+03  1.909E+00  9.636E+00  7.227E-02  1.955E+00
   1    3    6     3     2    1.7175E+00  2.4905E-01   1.4684E+00  0.000E+00  0.000E+00  0.000E+00  1.07264E+03  1.727E+00  8.909E+00  6.682E-02  1.864E+00
   1    3    7     3     3    1.4684E+00  1.9718E-01   1.2712E+00  0.000E+00  0.000E+00  0.000E+00  1.06987E+03  1.555E+00  8.218E+00  5.547E-02  1.777E+00
   1    4    8     3     4    1.2712E+00  2.2567E-01   1.0456E+00  0.000E+00  0.000E+00  0.000E+00  1.06682E+03  1.364E+00  7.455E+00  6.709E-02  1.682E+00
   1    5    8     3     5    1.0456E+00  1.5790E-01   8.8768E-01  0.000E+00  0.000E+00  0.000E+00  1.06362E+03  1.164E+00  6.655E+00  4.991E-02  1.582E+00
   1    6    8     3     6    8.8768E-01  5.5980E-02   8.3170E-01  0.000E+00  0.000E+00  0.000E+00  1.06158E+03  1.036E+00  6.145E+00  1.844E-02  1.518E+00
   1    5   10     4     1    1.0000E+01  9.0919E-02   9.9091E+00  0.000E+00  0.000E+00  0.000E+00  1.07836E+03  6.368E-01  1.000E+01  2.500E-02  1.212E+00
   1    5    9     4     2    9.9091E+00  1.8158E-01   9.7275E+00  0.000E+00  0.000E+00  0.000E+00  1.07154E+03  6.315E-01  1.000E+01  5.000E-02  1.211E+00
   1    6    8     4     3    9.7275E+00  1.2689E-01   9.6006E+00  0.000E+00  0.000E+00  0.000E+00  1.06381E+03  6.256E-01  1.000E+01  3.500E-02  1.209E+00
   1    6    8     5     1    1.0432E+01  2.2686E-01   1.0205E+01  0.000E+00  0.000E+00  0.000E+00  1.05868E+03  6.790E-01  1.542E+01  6.166E-02  1.226E+00
   1    7    7     5     2    1.0205E+01  2.7894E-01   9.9265E+00  0.000E+00  0.000E+00  0.000E+00  1.05417E+03  6.732E-01  1.519E+01  7.594E-02  1.224E+00
   1    8    7     5     3    9.9265E+00  1.9221E-01   9.7343E+00  0.000E+00  0.000E+00  0.000E+00  1.04992E+03  6.676E-01  1.497E+01  5.241E-02  1.223E+00
   1    8    6     5     4    9.7343E+00  1.3577E-01   9.5985E+00  0.000E+00  0.000E+00  0.000E+00  1.04691E+03  6.637E-01  1.482E+01  3.706E-02  1.221E+00
   1    9    6     6     1    2.4276E+01  2.5176E-01   2.4024E+01  0.000E+00  0.000E+00  0.000E+00  1.04392E+03  1.196E+00  1.200E+01  6.000E-02  1.399E+00
   1   10    7     6     2    2.4024E+01  2.5131E-01   2.3773E+01  0.000E+00  0.000E+00  0.000E+00  1.03937E+03  1.188E+00  1.200E+01  6.000E-02  1.396E+00
   1   11    7     6     3    2.3773E+01  2.5086E-01   2.3522E+01  0.000E+00  0.000E+00  0.000E+00  1.03482E+03  1.181E+00  1.200E+01  6.000E-02  1.394E+00
   1   12    7     6     4    2.3522E+01  2.5041E-01   2.3271E+01  0.000E+00  0.000E+00  0.000E+00  1.03026E+03  1.173E+00  1.200E+01  6.000E-02  1.391E+00
   1   13    7     6     5    2.3271E+01  3.4171E-03   2.3268E+01  0.000E+00  0.000E+00  0.000E+00  1.02708E+03  1.170E+00  1.200E+01  2.400E-02  4.746E-02
   1   14    9     7     1    1.5000E+02  1.3387E+00   1.4866E+02  0.000E+00  0.000E+00  0.000E+00  1.03987E+03  2.288E+00  5.529E+01  5.593E-01  7.978E-01
   1   13    8     7     2    1.4866E+02  1.8636E+00   1.4680E+02  0.000E+00  0.000E+00  0.000E+00  1.03478E+03  2.279E+00  5.526E+01  6.148E-01  1.010E+00
   1   13    7     7     3    1.4680E+02  1.5374E+00   1.4526E+02  0.000E+00  0.000E+00  0.000E+00  1.02969E+03  2.270E+00  5.522E+01  5.584E-01  9.177E-01
   1   13    6     8     1    1.6853E+02  9.8852E-01   1.6754E+02  0.000E+00  0.000E+00  0.000E+00  1.02481E+03  2.939E+00  4.262E+01  4.343E-01  7.587E-01
   1   13    5     8     2    1.6754E+02  2.4765E-01   1.6729E+02  0.000E+00  0.000E+00  0.000E+00  1.01856E+03  2.935E+00  4.256E+01  4.337E-01  1.903E-01
   1   13    4     8     3    1.6729E+02 -2.1748E+00   1.6947E+02  0.000E+00  0.000E+00  0.000E+00  1.01232E+03  2.942E+00  4.265E+01  4.347E+00 -1.668E-01
   1   13    3     8     4    1.6947E+02 -3.5359E+00   1.7300E+02  0.000E+00  0.000E+00  0.000E+00  1.00609E+03  2.960E+00  4.292E+01  4.374E+00 -2.695E-01
   1   13    2     8     5    1.7300E+02 -2.5587E+00   1.7556E+02  0.000E+00  0.000E+00  0.000E+00  9.99855E+02  2.980E+00  4.321E+01  4.403E+00 -1.937E-01
   1   13    1     8     6    1.7556E+02 -1.9827E+00   1.7754E+02  0.000E+00  0.000E+00  0.000E+00  9.94869E+02  2.994E+00  4.342E+01  2.655E+00 -2.490E-01





UNSATURATED ZONE PACKAGE VOLUMETRIC BUDGET FOR  TIME STEP    30 STRESS PERIOD   26
  ------------------------------------------------------------------------------



     CUMULATIVE VOLUMES      L**3       RATES FOR THIS TIME STEP      L**3/T
     ------------------                 ------------------------

           IN:                                      IN:
           ---                                      ---
        INFILTRATION =  1087370073.4106          INFILTRATION =           4.4075

          OUT:                                     OUT:
          ----                                     ----
              UZF ET =  1000387249.5354                UZF ET =           0.7250
        UZF RECHARGE =      797071.6500          UZF RECHARGE =       0.0000E+00

            IN - OUT =    86185752.2253              IN - OUT =           3.6825

          STORAGE:                                 STORAGE:
          --------                                 --------
      STORAGE CHANGE =    86187395.6616        STORAGE CHANGE =           3.6825

 PERCENT DISCREPANCY IS DIFFERENCE BETWEEN IN-OUT MINUS CHANGE IN STORAGE
 DIVIDED BY THE AVERAGE OF IN AND OUT TIMES 100

 PERCENT DISCREPANCY =          -0.00     PERCENT DISCREPANCY =           0.00






1
  VOLUMETRIC BUDGET FOR ENTIRE MODEL AT END OF TIME STEP   30, STRESS PERIOD  26
  ------------------------------------------------------------------------------

     CUMULATIVE VOLUMES      L**3       RATES FOR THIS TIME STEP      L**3/T
     ------------------                 ------------------------

           IN:                                      IN:
           ---                                      ---
               AG WELLS  =   797503936.0000                 AG WELLS  =           0.0000
      DIVERSION SEGMENTS =           0.0000        DIVERSION SEGMENTS =           0.0000
           GW IRRIGATION =           0.0000             GW IRRIGATION =           0.0000
           SW IRRIGATION =           0.0000             SW IRRIGATION =           0.0000
        SYSTEM LOSSES GW =           0.0000          SYSTEM LOSSES GW =           0.0000
        SYSTEM LOSSES SW =           0.0000          SYSTEM LOSSES SW =           0.0000

                TOTAL IN =   797503936.0000                  TOTAL IN =           0.0000

          OUT:                                     OUT:
          ----                                     ----
               AG WELLS  =           0.0000                 AG WELLS  =           0.0000
      DIVERSION SEGMENTS =           0.0000        DIVERSION SEGMENTS =           0.0000
           GW IRRIGATION =   797503936.0000             GW IRRIGATION =           0.0000
           SW IRRIGATION =           0.0000             SW IRRIGATION =           0.0000
        SYSTEM LOSSES GW =           0.0000          SYSTEM LOSSES GW =           0.0000
        SYSTEM LOSSES SW =           0.0000          SYSTEM LOSSES SW =           0.0000

               TOTAL OUT =   797503936.0000                 TOTAL OUT =           0.0000

                IN - OUT =           0.0000                  IN - OUT =           0.0000

     PERCENT DISCREPANCY =           0.00         PERCENT DISCREPANCY =           0.00



1
  VOLUMETRIC BUDGET FOR ENTIRE MODEL AT END OF TIME STEP   30, STRESS PERIOD  26
  ------------------------------------------------------------------------------

     CUMULATIVE VOLUMES      L**3       RATES FOR THIS TIME STEP      L**3/T
     ------------------                 ------------------------

           IN:                                      IN:
           ---                                      ---
             STORAGE     =  1103153408.0000               STORAGE     =           6.4746
       CONSTANT HEAD     =           0.0000         CONSTANT HEAD     =           0.0000
     HEAD DEP BOUNDS     =    18795610.0000       HEAD DEP BOUNDS     =           0.2860
      STREAM LEAKAGE     =   815334272.0000        STREAM LEAKAGE     =          11.7080
        UZF RECHARGE     =      797071.5625          UZF RECHARGE     =           0.0000
               GW ET     =           0.0000                 GW ET     =           0.0000
     SURFACE LEAKAGE     =           0.0000       SURFACE LEAKAGE     =           0.0000
           AG WELLS      =           0.0000             AG WELLS      =           0.0000

                TOTAL IN =  1938080384.0000                  TOTAL IN =          18.4685

          OUT:                                     OUT:
          ----                                     ----
             STORAGE     =   420133856.0000               STORAGE     =           7.9270
       CONSTANT HEAD     =           0.0000         CONSTANT HEAD     =           0.0000
     HEAD DEP BOUNDS     =    19347600.0000       HEAD DEP BOUNDS     =           0.2894
      STREAM LEAKAGE     =   683779648.0000        STREAM LEAKAGE     =          10.2521
        UZF RECHARGE     =           0.0000          UZF RECHARGE     =           0.0000
               GW ET     =    17319432.0000                 GW ET     =           0.0000
     SURFACE LEAKAGE     =           0.0000       SURFACE LEAKAGE     =           0.0000
           AG WELLS      =   797503936.0000             AG WELLS      =           0.0000

               TOTAL OUT =  1938084608.0000                 TOTAL OUT =          18.4685

                IN - OUT =       -4224.0000                  IN - OUT =       7.6294E-06

     PERCENT DISCREPANCY =          -0.00         PERCENT DISCREPANCY =           0.00






         TIME SUMMARY AT END OF TIME STEP   30 IN STRESS PERIOD   26
                    SECONDS     MINUTES      HOURS       DAYS        YEARS
                    -----------------------------------------------------------
   TIME STEP LENGTH  87667.      1461.1      24.352      1.0147     2.77799E-03
 STRESS PERIOD TIME 2.63000E+06  43833.      730.56      30.440     8.33397E-02
         TOTAL TIME 6.58368E+07 1.09728E+06  18288.      762.00      2.0862    
1
1
                            STRESS PERIOD NO.   27, LENGTH =   2630000.    
                            -----------------------------------------------

                              NUMBER OF TIME STEPS =    30

                               MULTIPLIER FOR DELT =     1.000

                            INITIAL TIME STEP SIZE =   87666.66    

 REUSING NON-PARAMETER GHB CELLS FROM LAST STRESS PERIOD

      2 GHB CELLS

 REUSING STREAM SEGMENT DATA FROM LAST STRESS PERIOD



            AREAL INFILTRATION RATE
 READING ON UNIT   19 WITH FORMAT: (10F4.0)            

            1           2           3           4           5           6           7           8           9          10
 ........................................................................................................................
   1   1.2000E-09   0.000       0.000       0.000       0.000       0.000       0.000       0.000       0.000       0.000    
   2   2.1000E-09  2.0000E-09  8.0000E-10  8.5000E-09   0.000       0.000       0.000       0.000       0.000       0.000    
   3   5.0000E-10  1.1000E-09  8.8000E-09  5.5000E-09   0.000       0.000       0.000       0.000       0.000       0.000    
   4   8.5000E-09  1.1000E-09  1.1000E-09  1.1000E-09  2.0000E-09   0.000       0.000       0.000       0.000       0.000    
   5   8.5000E-09  1.1000E-09  1.1000E-09  1.1000E-09  1.1000E-09   0.000       0.000       0.000       0.000       0.000    
   6   8.5000E-09  5.2000E-09  2.1000E-09  1.1000E-09  1.5000E-09   0.000       0.000       0.000       0.000       0.000    
   7   8.5000E-09  5.2000E-09  2.1000E-09  1.2000E-09  2.0000E-09   0.000       0.000       0.000       0.000       0.000    
   8   5.0000E-10  5.2000E-09  2.1000E-09  1.2000E-09  5.0000E-09   0.000       0.000       0.000       0.000       0.000    
   9   5.0000E-10  5.2000E-09  2.1000E-09  1.2000E-09  5.0000E-09   0.000       0.000       0.000       0.000       0.000    
  10   5.0000E-10  5.2000E-09  2.1000E-09  1.2000E-09  5.8000E-09   0.000       0.000       0.000       0.000       0.000    
  11   1.0000E-10  1.1000E-09  1.1000E-09  1.2000E-09  5.0000E-09   0.000       0.000       0.000       0.000       0.000    
  12   1.1000E-09  1.1000E-09  1.1000E-09  1.1000E-09  2.0000E-09   0.000       0.000       0.000       0.000       0.000    
  13   1.1000E-09  2.2000E-09  2.2000E-09  2.1000E-09  1.0000E-09   0.000       0.000       0.000       0.000       0.000    
  14   2.0000E-10  5.5000E-09  5.5000E-09  5.2000E-09  1.0000E-09   0.000       0.000       0.000       0.000       0.000    
  15    0.000      8.8000E-09  8.8000E-09   0.000       0.000       0.000       0.000       0.000       0.000       0.000    

                  ET RATE =  5.000000E-10

 USING ET EXTINCTION DEPTH FROM PREVIOUS STRESS PERIOD. CURRENT PERIOD IS:      27

 USING EXTINCTION WATER CONTENT FROM PREVIOUS STRESS PERIOD. CURRENT PERIOD IS:      27

 USING AIR ENTRY PRESSURE FROM PREVIOUS STRESS PERIOD. CURRENT PERIOD IS:      27

 USING ROOT PRESSURE HEAD FROM PREVIOUS STRESS PERIOD. CURRENT PERIOD IS:      27

 USING ROOT ACTIVITY FROM PREVIOUS STRESS PERIOD. CURRENT PERIOD IS:      27

 PROCESSING AG STRESS PERIOD DATA

 READING AG STRESS PERIOD DATA

 READING IRRIGATION WELL

 END PROCESSING AG STRESS PERIOD DATA OPTIONS
 
 SOLVING FOR HEAD 
                                                   Max.-Head-Change                         Max.-Flux-Residual
  Residual-Control   Outer-Iter.   Inner-Iter.     Column Row Layer    Maximum-Head-Change  Column Row Layer    Maximum-Flux-Residual          L2-NORM 
          0                 1           2             4    7     1       0.1726955270E-01       4    7    1         0.9059413201E+00      0.2235007411E+01
          0                 2           2             4    7     1      -0.1679862529E-02       4    7    1        -0.9059453275E-01      0.2234990006E+00
          0                 3           1             4    7     1       0.1143923556E-03       4    7    1         0.6341616248E-02      0.1564476523E-01
          0                 4           1             4    7     1      -0.4551782551E-05       4    7    1        -0.2593724919E-03      0.6398605160E-03

    ------------------------------------------------
       NWT REQUIRED            4 OUTER ITERATIONS 
       AND A TOTAL OF          6 INNER ITERATIONS.
    ------------------------------------------------

 NO OUTPUT CONTROL FOR STRESS PERIOD   27   TIME STEP    1
 
 SOLVING FOR HEAD 
                                                   Max.-Head-Change                         Max.-Flux-Residual
  Residual-Control   Outer-Iter.   Inner-Iter.     Column Row Layer    Maximum-Head-Change  Column Row Layer    Maximum-Flux-Residual          L2-NORM 
          0                 1           2             4    7     1       0.1710557559E-01       4    7    1         0.8972985971E+00      0.2218365578E+01
          0                 2           2             4    7     1      -0.1663911901E-02       4    7    1        -0.8973025198E-01      0.2218348300E+00
          0                 3           1             4    7     1       0.1133061779E-03       4    7    1         0.6281116634E-02      0.1552826150E-01
          0                 4           1             4    7     1      -0.4508562038E-05       4    7    1        -0.2568980522E-03      0.6350930342E-03

    ------------------------------------------------
       NWT REQUIRED            4 OUTER ITERATIONS 
       AND A TOTAL OF          6 INNER ITERATIONS.
    ------------------------------------------------

 NO OUTPUT CONTROL FOR STRESS PERIOD   27   TIME STEP    2
 
 SOLVING FOR HEAD 
                                                   Max.-Head-Change                         Max.-Flux-Residual
  Residual-Control   Outer-Iter.   Inner-Iter.     Column Row Layer    Maximum-Head-Change  Column Row Layer    Maximum-Flux-Residual          L2-NORM 
          0                 1           2             4    7     1       0.1694397904E-01       4    7    1         0.8887819073E+00      0.2201931104E+01
          0                 2           2             4    7     1      -0.1648192840E-02       4    7    1        -0.8887857473E-01      0.2201914052E+00
          0                 3           1             4    7     1       0.1122357693E-03       4    7    1         0.6221499280E-02      0.1541322695E-01
          0                 4           1             4    7     1      -0.4465969547E-05       4    7    1        -0.2544596941E-03      0.6304029491E-03

    ------------------------------------------------
       NWT REQUIRED            4 OUTER ITERATIONS 
       AND A TOTAL OF          6 INNER ITERATIONS.
    ------------------------------------------------

 NO OUTPUT CONTROL FOR STRESS PERIOD   27   TIME STEP    3
 
 SOLVING FOR HEAD 
                                                   Max.-Head-Change                         Max.-Flux-Residual
  Residual-Control   Outer-Iter.   Inner-Iter.     Column Row Layer    Maximum-Head-Change  Column Row Layer    Maximum-Flux-Residual          L2-NORM 
          0                 1           2             4    7     1       0.1678458249E-01       4    7    1         0.8803813122E+00      0.2185707535E+01
          0                 2           2             4    7     1      -0.1632687783E-02       4    7    1        -0.8803850713E-01      0.2185690527E+00
          0                 3           1             4    7     1       0.1111799339E-03       4    7    1         0.6162694628E-02      0.1529965544E-01
          0                 4           1             4    7     1      -0.4423956722E-05       4    7    1        -0.2520545693E-03      0.6257363451E-03

    ------------------------------------------------
       NWT REQUIRED            4 OUTER ITERATIONS 
       AND A TOTAL OF          6 INNER ITERATIONS.
    ------------------------------------------------

 NO OUTPUT CONTROL FOR STRESS PERIOD   27   TIME STEP    4
 
 SOLVING FOR HEAD 
                                                   Max.-Head-Change                         Max.-Flux-Residual
  Residual-Control   Outer-Iter.   Inner-Iter.     Column Row Layer    Maximum-Head-Change  Column Row Layer    Maximum-Flux-Residual          L2-NORM 
          0                 1           2             4    7     1       0.1662747918E-01       4    7    1         0.8721021178E+00      0.2169686580E+01
          0                 2           2             4    7     1      -0.1617405797E-02       4    7    1        -0.8721057981E-01      0.2169669802E+00
          0                 3           1             4    7     1       0.1101392880E-03       4    7    1         0.6104739734E-02      0.1518752536E-01
          0                 4           1             4    7     1      -0.4382548778E-05       4    7    1        -0.2496842244E-03      0.6211612280E-03

    ------------------------------------------------
       NWT REQUIRED            4 OUTER ITERATIONS 
       AND A TOTAL OF          6 INNER ITERATIONS.
    ------------------------------------------------

 NO OUTPUT CONTROL FOR STRESS PERIOD   27   TIME STEP    5
 
 SOLVING FOR HEAD 
                                                   Max.-Head-Change                         Max.-Flux-Residual
  Residual-Control   Outer-Iter.   Inner-Iter.     Column Row Layer    Maximum-Head-Change  Column Row Layer    Maximum-Flux-Residual          L2-NORM 
          0                 1           2             4    7     1       0.1647262373E-01       4    7    1         0.8639418241E+00      0.2153862805E+01
          0                 2           2             4    7     1      -0.1602342471E-02       4    7    1        -0.8639454276E-01      0.2153846184E+00
          0                 3           1             4    7     1       0.1091135328E-03       4    7    1         0.6047617198E-02      0.1507674642E-01
          0                 4           1             4    7     1      -0.4341733166E-05       4    7    1        -0.2473479176E-03      0.6166289660E-03

    ------------------------------------------------
       NWT REQUIRED            4 OUTER ITERATIONS 
       AND A TOTAL OF          6 INNER ITERATIONS.
    ------------------------------------------------

 NO OUTPUT CONTROL FOR STRESS PERIOD   27   TIME STEP    6
 
 SOLVING FOR HEAD 
                                                   Max.-Head-Change                         Max.-Flux-Residual
  Residual-Control   Outer-Iter.   Inner-Iter.     Column Row Layer    Maximum-Head-Change  Column Row Layer    Maximum-Flux-Residual          L2-NORM 
          0                 1           2             4    7     1       0.1631983688E-01       4    7    1         0.8558907436E+00      0.2138239470E+01
          0                 2           2             4    7     1      -0.1587480365E-02       4    7    1        -0.8558942722E-01      0.2138222883E+00
          0                 3           1             4    7     1       0.1081014795E-03       4    7    1         0.5991259167E-02      0.1496739749E-01
          0                 4           1             4    7     1      -0.4301462107E-05       4    7    1        -0.2450428603E-03      0.6121520055E-03

    ------------------------------------------------
       NWT REQUIRED            4 OUTER ITERATIONS 
       AND A TOTAL OF          6 INNER ITERATIONS.
    ------------------------------------------------

 NO OUTPUT CONTROL FOR STRESS PERIOD   27   TIME STEP    7
 
 SOLVING FOR HEAD 
                                                   Max.-Head-Change                         Max.-Flux-Residual
  Residual-Control   Outer-Iter.   Inner-Iter.     Column Row Layer    Maximum-Head-Change  Column Row Layer    Maximum-Flux-Residual          L2-NORM 
          0                 1           2             4    7     1       0.1616921966E-01       4    7    1         0.8479542514E+00      0.2122804113E+01
          0                 2           2             4    7     1      -0.1575478270E-02       4    7    1        -0.8496374461E-01      0.2123248587E+00
          0                 3           1             4    7     1       0.1072841783E-03       4    7    1         0.5947461160E-02      0.1486258117E-01
          0                 4           1             4    7     1      -0.4268940977E-05       4    7    1        -0.2432515194E-03      0.6078575924E-03

    ------------------------------------------------
       NWT REQUIRED            4 OUTER ITERATIONS 
       AND A TOTAL OF          6 INNER ITERATIONS.
    ------------------------------------------------

 NO OUTPUT CONTROL FOR STRESS PERIOD   27   TIME STEP    8
 
 SOLVING FOR HEAD 
                                                   Max.-Head-Change                         Max.-Flux-Residual
  Residual-Control   Outer-Iter.   Inner-Iter.     Column Row Layer    Maximum-Head-Change  Column Row Layer    Maximum-Flux-Residual          L2-NORM 
          0                 1           2             4    7     1       0.1601497757E-01       4    7    1         0.8399890540E+00      0.2107528122E+01
          0                 2           2             4    7     1      -0.1557825960E-02       4    7    1        -0.8399926530E-01      0.2107511892E+00
          0                 3           1             4    7     1       0.1060821237E-03       4    7    1         0.5879947725E-02      0.1475244820E-01
          0                 4           1             4    7     1      -0.4221110179E-05       4    7    1        -0.2404902191E-03      0.6033836167E-03

    ------------------------------------------------
       NWT REQUIRED            4 OUTER ITERATIONS 
       AND A TOTAL OF          6 INNER ITERATIONS.
    ------------------------------------------------

 NO OUTPUT CONTROL FOR STRESS PERIOD   27   TIME STEP    9
 
 SOLVING FOR HEAD 
                                                   Max.-Head-Change                         Max.-Flux-Residual
  Residual-Control   Outer-Iter.   Inner-Iter.     Column Row Layer    Maximum-Head-Change  Column Row Layer    Maximum-Flux-Residual          L2-NORM 
          0                 1           2             4    7     1       0.1586578474E-01       4    7    1         0.8321182863E+00      0.2092422574E+01
          0                 2           2             4    7     1      -0.1543313443E-02       4    7    1        -0.8321218024E-01      0.2092406293E+00
          0                 3           1             4    7     1       0.1050938761E-03       4    7    1         0.5824851812E-02      0.1464667916E-01
          0                 4           1             4    7     1      -0.4181786966E-05       4    7    1        -0.2382367916E-03      0.5990716393E-03

    ------------------------------------------------
       NWT REQUIRED            4 OUTER ITERATIONS 
       AND A TOTAL OF          6 INNER ITERATIONS.
    ------------------------------------------------

 NO OUTPUT CONTROL FOR STRESS PERIOD   27   TIME STEP   10
 
 SOLVING FOR HEAD 
                                                   Max.-Head-Change                         Max.-Flux-Residual
  Residual-Control   Outer-Iter.   Inner-Iter.     Column Row Layer    Maximum-Head-Change  Column Row Layer    Maximum-Flux-Residual          L2-NORM 
          0                 1           2             4    7     1       0.1571872728E-01       4    7    1         0.8243608018E+00      0.2077508965E+01
          0                 2           2             4    7     1      -0.1529008642E-02       4    7    1        -0.8243642373E-01      0.2077492517E+00
          0                 3           1             4    7     1       0.1041197730E-03       4    7    1         0.5770548891E-02      0.1454225798E-01
          0                 4           1             4    7     1      -0.4143026496E-05       4    7    1        -0.2360157955E-03      0.5947528765E-03

    ------------------------------------------------
       NWT REQUIRED            4 OUTER ITERATIONS 
       AND A TOTAL OF          6 INNER ITERATIONS.
    ------------------------------------------------

 NO OUTPUT CONTROL FOR STRESS PERIOD   27   TIME STEP   11
 
 SOLVING FOR HEAD 
                                                   Max.-Head-Change                         Max.-Flux-Residual
  Residual-Control   Outer-Iter.   Inner-Iter.     Column Row Layer    Maximum-Head-Change  Column Row Layer    Maximum-Flux-Residual          L2-NORM 
          0                 1           2             4    7     1       0.1557389036E-01       4    7    1         0.8167213682E+00      0.2062776359E+01
          0                 2           2             4    7     1      -0.1514919844E-02       4    7    1        -0.8167247255E-01      0.2062760560E+00
          0                 3           1             4    7     1       0.1031603793E-03       4    7    1         0.5717072367E-02      0.1443917519E-01
          0                 4           1             4    7     1      -0.4104851105E-05       4    7    1        -0.2338286060E-03      0.5905519814E-03

    ------------------------------------------------
       NWT REQUIRED            4 OUTER ITERATIONS 
       AND A TOTAL OF          6 INNER ITERATIONS.
    ------------------------------------------------

 NO OUTPUT CONTROL FOR STRESS PERIOD   27   TIME STEP   12
 
 SOLVING FOR HEAD 
                                                   Max.-Head-Change                         Max.-Flux-Residual
  Residual-Control   Outer-Iter.   Inner-Iter.     Column Row Layer    Maximum-Head-Change  Column Row Layer    Maximum-Flux-Residual          L2-NORM 
          0                 1           2             4    7     1       0.1543122194E-01       4    7    1         0.8091970664E+00      0.2048231654E+01
          0                 2           2             4    7     1      -0.1501041984E-02       4    7    1        -0.8092003475E-01      0.2048215893E+00
          0                 3           1             4    7     1       0.1022153499E-03       4    7    1         0.5664401787E-02      0.1433734963E-01
          0                 4           1             4    7     1      -0.4067247668E-05       4    7    1        -0.2316743771E-03      0.5864000496E-03

    ------------------------------------------------
       NWT REQUIRED            4 OUTER ITERATIONS 
       AND A TOTAL OF          6 INNER ITERATIONS.
    ------------------------------------------------

 NO OUTPUT CONTROL FOR STRESS PERIOD   27   TIME STEP   13
 
 SOLVING FOR HEAD 
                                                   Max.-Head-Change                         Max.-Flux-Residual
  Residual-Control   Outer-Iter.   Inner-Iter.     Column Row Layer    Maximum-Head-Change  Column Row Layer    Maximum-Flux-Residual          L2-NORM 
          0                 1           2             4    7     1       0.1529066591E-01       4    7    1         0.8017851981E+00      0.2033852258E+01
          0                 2           2             4    7     1      -0.1487369606E-02       4    7    1        -0.8017884054E-01      0.2033836516E+00
          0                 3           1             4    7     1       0.1012843123E-03       4    7    1         0.5612518225E-02      0.1423669478E-01
          0                 4           1             4    7     1      -0.4030200757E-05       4    7    1        -0.2295523343E-03      0.5822850716E-03

    ------------------------------------------------
       NWT REQUIRED            4 OUTER ITERATIONS 
       AND A TOTAL OF          6 INNER ITERATIONS.
    ------------------------------------------------

 NO OUTPUT CONTROL FOR STRESS PERIOD   27   TIME STEP   14
 
 SOLVING FOR HEAD 
                                                   Max.-Head-Change                         Max.-Flux-Residual
  Residual-Control   Outer-Iter.   Inner-Iter.     Column Row Layer    Maximum-Head-Change  Column Row Layer    Maximum-Flux-Residual          L2-NORM 
          0                 1           2             4    7     1       0.1515217307E-01       4    7    1         0.7944828541E+00      0.2019651114E+01
          0                 2           2             4    7     1      -0.1473897923E-02       4    7    1        -0.7944859898E-01      0.2019635346E+00
          0                 3           1             4    7     1       0.1003669420E-03       4    7    1         0.5561401377E-02      0.1413729316E-01
          0                 4           1             4    7     1      -0.3993697594E-05       4    7    1        -0.2274616515E-03      0.5782096483E-03

    ------------------------------------------------
       NWT REQUIRED            4 OUTER ITERATIONS 
       AND A TOTAL OF          6 INNER ITERATIONS.
    ------------------------------------------------

 NO OUTPUT CONTROL FOR STRESS PERIOD   27   TIME STEP   15
 
 SOLVING FOR HEAD 
                                                   Max.-Head-Change                         Max.-Flux-Residual
  Residual-Control   Outer-Iter.   Inner-Iter.     Column Row Layer    Maximum-Head-Change  Column Row Layer    Maximum-Flux-Residual          L2-NORM 
          0                 1           2             4    7     1       0.1501556068E-01       4    7    1         0.7872801466E+00      0.2005620192E+01
          0                 2           2             4    7     1      -0.1460609159E-02       4    7    1        -0.7872832126E-01      0.2005604463E+00
          0                 3           1             4    7     1       0.9946202717E-04       4    7    1         0.5510981963E-02      0.1403905396E-01

    ------------------------------------------------
       NWT REQUIRED            3 OUTER ITERATIONS 
       AND A TOTAL OF          5 INNER ITERATIONS.
    ------------------------------------------------

 NO OUTPUT CONTROL FOR STRESS PERIOD   27   TIME STEP   16
 
 SOLVING FOR HEAD 
                                                   Max.-Head-Change                         Max.-Flux-Residual
  Residual-Control   Outer-Iter.   Inner-Iter.     Column Row Layer    Maximum-Head-Change  Column Row Layer    Maximum-Flux-Residual          L2-NORM 
          0                 1           2             4    7     1       0.1488101337E-01       4    7    1         0.7801870789E+00      0.1991754039E+01
          0                 2           2             4    7     1      -0.1447521274E-02       4    7    1        -0.7801900772E-01      0.1991738431E+00
          0                 3           1             4    7     1       0.9857079184E-04       4    7    1         0.5461330064E-02      0.1394200741E-01

    ------------------------------------------------
       NWT REQUIRED            3 OUTER ITERATIONS 
       AND A TOTAL OF          5 INNER ITERATIONS.
    ------------------------------------------------

 NO OUTPUT CONTROL FOR STRESS PERIOD   27   TIME STEP   17
 
 SOLVING FOR HEAD 
                                                   Max.-Head-Change                         Max.-Flux-Residual
  Residual-Control   Outer-Iter.   Inner-Iter.     Column Row Layer    Maximum-Head-Change  Column Row Layer    Maximum-Flux-Residual          L2-NORM 
          0                 1           2             4    7     1       0.1474839118E-01       4    7    1         0.7731963122E+00      0.1978058571E+01
          0                 2           2             4    7     1      -0.1434620654E-02       4    7    1        -0.7731992445E-01      0.1978042983E+00
          0                 3           1             4    7     1       0.9769230811E-04       4    7    1         0.5412394270E-02      0.1384615026E-01

    ------------------------------------------------
       NWT REQUIRED            3 OUTER ITERATIONS 
       AND A TOTAL OF          5 INNER ITERATIONS.
    ------------------------------------------------

 NO OUTPUT CONTROL FOR STRESS PERIOD   27   TIME STEP   18
 
 SOLVING FOR HEAD 
                                                   Max.-Head-Change                         Max.-Flux-Residual
  Residual-Control   Outer-Iter.   Inner-Iter.     Column Row Layer    Maximum-Head-Change  Column Row Layer    Maximum-Flux-Residual          L2-NORM 
          0                 1           2             4    7     1       0.1461765070E-01       4    7    1         0.7663053592E+00      0.1964523701E+01
          0                 2           2             4    7     1      -0.1421903076E-02       4    7    1        -0.7663082275E-01      0.1964508477E+00
          0                 3           1             4    7     1       0.9682628937E-04       4    7    1         0.5364157203E-02      0.1375138365E-01

    ------------------------------------------------
       NWT REQUIRED            3 OUTER ITERATIONS 
       AND A TOTAL OF          5 INNER ITERATIONS.
    ------------------------------------------------

 NO OUTPUT CONTROL FOR STRESS PERIOD   27   TIME STEP   19
 
 SOLVING FOR HEAD 
                                                   Max.-Head-Change                         Max.-Flux-Residual
  Residual-Control   Outer-Iter.   Inner-Iter.     Column Row Layer    Maximum-Head-Change  Column Row Layer    Maximum-Flux-Residual          L2-NORM 
          0                 1           2             4    7     1       0.1448861311E-01       4    7    1         0.7595046313E+00      0.1951139328E+01
          0                 2           2             4    7     1      -0.1409351145E-02       4    7    1        -0.7595074375E-01      0.1951124088E+00
          0                 3           1             4    7     1       0.9597155024E-04       4    7    1         0.5316551717E-02      0.1365772025E-01

    ------------------------------------------------
       NWT REQUIRED            3 OUTER ITERATIONS 
       AND A TOTAL OF          5 INNER ITERATIONS.
    ------------------------------------------------

 NO OUTPUT CONTROL FOR STRESS PERIOD   27   TIME STEP   20
 
 SOLVING FOR HEAD 
                                                   Max.-Head-Change                         Max.-Flux-Residual
  Residual-Control   Outer-Iter.   Inner-Iter.     Column Row Layer    Maximum-Head-Change  Column Row Layer    Maximum-Flux-Residual          L2-NORM 
          0                 1           2             4    7     1       0.1436151613E-01       4    7    1         0.7528068710E+00      0.1937925160E+01
          0                 2           2             4    7     1      -0.1396987985E-02       4    7    1        -0.7528096167E-01      0.1937910202E+00
          0                 3           1             4    7     1       0.9512966566E-04       4    7    1         0.5269667006E-02      0.1356521180E-01

    ------------------------------------------------
       NWT REQUIRED            3 OUTER ITERATIONS 
       AND A TOTAL OF          5 INNER ITERATIONS.
    ------------------------------------------------

 NO OUTPUT CONTROL FOR STRESS PERIOD   27   TIME STEP   21
 
 SOLVING FOR HEAD 
                                                   Max.-Head-Change                         Max.-Flux-Residual
  Residual-Control   Outer-Iter.   Inner-Iter.     Column Row Layer    Maximum-Head-Change  Column Row Layer    Maximum-Flux-Residual          L2-NORM 
          0                 1           2             4    7     1       0.1423617879E-01       4    7    1         0.7462023898E+00      0.1924863019E+01
          0                 2           2             4    7     1      -0.1384795992E-02       4    7    1        -0.7462050764E-01      0.1924810616E+00
          0                 3           1             4    7     1       0.9429943689E-04       4    7    1         0.5223435255E-02      0.1347352005E-01

    ------------------------------------------------
       NWT REQUIRED            3 OUTER ITERATIONS 
       AND A TOTAL OF          5 INNER ITERATIONS.
    ------------------------------------------------

 NO OUTPUT CONTROL FOR STRESS PERIOD   27   TIME STEP   22
 
 SOLVING FOR HEAD 
                                                   Max.-Head-Change                         Max.-Flux-Residual
  Residual-Control   Outer-Iter.   Inner-Iter.     Column Row Layer    Maximum-Head-Change  Column Row Layer    Maximum-Flux-Residual          L2-NORM 
          0                 1           2             4    7     1       0.1411255991E-01       4    7    1         0.7396891427E+00      0.1911951676E+01
          0                 2           2             4    7     1      -0.1372771160E-02       4    7    1        -0.7396917720E-01      0.1911936631E+00
          0                 3           1             4    7     1       0.9348059091E-04       4    7    1         0.5177842134E-02      0.1338344668E-01

    ------------------------------------------------
       NWT REQUIRED            3 OUTER ITERATIONS 
       AND A TOTAL OF          5 INNER ITERATIONS.
    ------------------------------------------------

 NO OUTPUT CONTROL FOR STRESS PERIOD   27   TIME STEP   23
 
 SOLVING FOR HEAD 
                                                   Max.-Head-Change                         Max.-Flux-Residual
  Residual-Control   Outer-Iter.   Inner-Iter.     Column Row Layer    Maximum-Head-Change  Column Row Layer    Maximum-Flux-Residual          L2-NORM 
          0                 1           2             4    7     1       0.1399075845E-01       4    7    1         0.7332723329E+00      0.1899198661E+01
          0                 2           2             4    7     1      -0.1360923117E-02       4    7    1        -0.7332749068E-01      0.1899183797E+00
          0                 3           1             4    7     1       0.9267378416E-04       4    7    1         0.5132924126E-02      0.1329415122E-01

    ------------------------------------------------
       NWT REQUIRED            3 OUTER ITERATIONS 
       AND A TOTAL OF          5 INNER ITERATIONS.
    ------------------------------------------------

 NO OUTPUT CONTROL FOR STRESS PERIOD   27   TIME STEP   24
 
 SOLVING FOR HEAD 
                                                   Max.-Head-Change                         Max.-Flux-Residual
  Residual-Control   Outer-Iter.   Inner-Iter.     Column Row Layer    Maximum-Head-Change  Column Row Layer    Maximum-Flux-Residual          L2-NORM 
          0                 1           2             4    7     1       0.1387046471E-01       4    7    1         0.7269350759E+00      0.1886594456E+01
          0                 2           2             4    7     1      -0.1349221736E-02       4    7    1        -0.7269375952E-01      0.1886579765E+00
          0                 3           1             4    7     1       0.9187696442E-04       4    7    1         0.5088562989E-02      0.1320589623E-01

    ------------------------------------------------
       NWT REQUIRED            3 OUTER ITERATIONS 
       AND A TOTAL OF          5 INNER ITERATIONS.
    ------------------------------------------------

 NO OUTPUT CONTROL FOR STRESS PERIOD   27   TIME STEP   25
 
 SOLVING FOR HEAD 
                                                   Max.-Head-Change                         Max.-Flux-Residual
  Residual-Control   Outer-Iter.   Inner-Iter.     Column Row Layer    Maximum-Head-Change  Column Row Layer    Maximum-Flux-Residual          L2-NORM 
          0                 1           2             4    7     1       0.1375192007E-01       4    7    1         0.7206906694E+00      0.1874133409E+01
          0                 2           2             4    7     1      -0.1337690497E-02       4    7    1        -0.7206931359E-01      0.1874118675E+00
          0                 3           1             4    7     1       0.9109173019E-04       4    7    1         0.5044851785E-02      0.1311869066E-01

    ------------------------------------------------
       NWT REQUIRED            3 OUTER ITERATIONS 
       AND A TOTAL OF          5 INNER ITERATIONS.
    ------------------------------------------------

 NO OUTPUT CONTROL FOR STRESS PERIOD   27   TIME STEP   26
 
 SOLVING FOR HEAD 
                                                   Max.-Head-Change                         Max.-Flux-Residual
  Residual-Control   Outer-Iter.   Inner-Iter.     Column Row Layer    Maximum-Head-Change  Column Row Layer    Maximum-Flux-Residual          L2-NORM 
          0                 1           2             4    7     1       0.1363494865E-01       4    7    1         0.7145296114E+00      0.1861818886E+01
          0                 2           2             4    7     1      -0.1326312291E-02       4    7    1        -0.7145320265E-01      0.1861804493E+00
          0                 3           1             4    7     1       0.9031691752E-04       4    7    1         0.5001724055E-02      0.1303249894E-01

    ------------------------------------------------
       NWT REQUIRED            3 OUTER ITERATIONS 
       AND A TOTAL OF          5 INNER ITERATIONS.
    ------------------------------------------------

 NO OUTPUT CONTROL FOR STRESS PERIOD   27   TIME STEP   27
 
 SOLVING FOR HEAD 
                                                   Max.-Head-Change                         Max.-Flux-Residual
  Residual-Control   Outer-Iter.   Inner-Iter.     Column Row Layer    Maximum-Head-Change  Column Row Layer    Maximum-Flux-Residual          L2-NORM 
          0                 1           2             4    7     1       0.1351951509E-01       4    7    1         0.7084501218E+00      0.1849634005E+01
          0                 2           2             4    7     1      -0.1315083679E-02       4    7    1        -0.7084524869E-01      0.1849619284E+00
          0                 3           1             4    7     1       0.8955229150E-04       4    7    1         0.4959167307E-02      0.1294719894E-01

    ------------------------------------------------
       NWT REQUIRED            3 OUTER ITERATIONS 
       AND A TOTAL OF          5 INNER ITERATIONS.
    ------------------------------------------------

 NO OUTPUT CONTROL FOR STRESS PERIOD   27   TIME STEP   28
 
 SOLVING FOR HEAD 
                                                   Max.-Head-Change                         Max.-Flux-Residual
  Residual-Control   Outer-Iter.   Inner-Iter.     Column Row Layer    Maximum-Head-Change  Column Row Layer    Maximum-Flux-Residual          L2-NORM 
          0                 1           2             4    7     1       0.1340559094E-01       4    7    1         0.7024503671E+00      0.1837596210E+01
          0                 2           2             4    7     1      -0.1304001893E-02       4    7    1        -0.7024526831E-01      0.1837581477E+00
          0                 3           1             4    7     1       0.8879766351E-04       4    7    1         0.4917168704E-02      0.1286290637E-01

    ------------------------------------------------
       NWT REQUIRED            3 OUTER ITERATIONS 
       AND A TOTAL OF          5 INNER ITERATIONS.
    ------------------------------------------------

 NO OUTPUT CONTROL FOR STRESS PERIOD   27   TIME STEP   29
 
 SOLVING FOR HEAD 
                                                   Max.-Head-Change                         Max.-Flux-Residual
  Residual-Control   Outer-Iter.   Inner-Iter.     Column Row Layer    Maximum-Head-Change  Column Row Layer    Maximum-Flux-Residual          L2-NORM 
          0                 1           2             4    7     1       0.1329328113E-01       4    7    1         0.6965362132E+00      0.1825696592E+01
          0                 2           2             4    7     1      -0.1293077141E-02       4    7    1        -0.6965384817E-01      0.1825681997E+00
          0                 3           1             4    7     1       0.8805372912E-04       4    7    1         0.4875769330E-02      0.1277963579E-01

    ------------------------------------------------
       NWT REQUIRED            3 OUTER ITERATIONS 
       AND A TOTAL OF          5 INNER ITERATIONS.
    ------------------------------------------------

 NO OUTPUT CONTROL FOR STRESS PERIOD   27   TIME STEP   30



 STREAM LISTING     PERIOD     27   STEP       30

 LAYER ROW COL. STREAM  RCH.  FLOW INTO     FLOW TO   FLOW OUT OF   OVRLND.     DIRECT     STREAM       STREAM     STREAM     STREAM   STREAMBED  STREAMBED
                SEG.NO.  NO.  STRM. RCH.    AQUIFER    STRM. RCH.    RUNOFF     PRECIP       ET          HEAD       DEPTH      WIDTH   CONDCTNC.   GRADIENT

   1    1    1     1     1    1.9000E+01  2.1427E-01   1.8786E+01  0.000E+00  0.000E+00  0.000E+00  1.09413E+03  1.082E+00  1.166E+01  5.249E-02  1.361E+00
   1    2    2     1     2    1.8786E+01  3.3054E-01   1.8455E+01  0.000E+00  0.000E+00  0.000E+00  1.08914E+03  1.077E+00  1.158E+01  8.107E-02  1.359E+00
   1    3    3     1     3    1.8455E+01  2.8064E-01   1.8175E+01  0.000E+00  0.000E+00  0.000E+00  1.08349E+03  1.072E+00  1.149E+01  6.892E-02  1.357E+00
   1    3    4     1     4    1.8175E+01  2.5740E-01   1.7917E+01  0.000E+00  0.000E+00  0.000E+00  1.07848E+03  1.068E+00  1.140E+01  6.328E-02  1.356E+00
   1    4    5     2     1    1.5917E+01  3.0542E-01   1.5612E+01  0.000E+00  0.000E+00  0.000E+00  1.07285E+03  9.157E-01  1.200E+01  7.800E-02  1.305E+00
   1    5    6     2     2    1.5612E+01  2.3438E-01   1.5377E+01  0.000E+00  0.000E+00  0.000E+00  1.06742E+03  9.063E-01  1.200E+01  6.000E-02  1.302E+00
   1    6    6     2     3    1.5377E+01  2.3388E-01   1.5143E+01  0.000E+00  0.000E+00  0.000E+00  1.06269E+03  8.980E-01  1.200E+01  6.000E-02  1.299E+00
   1    7    6     2     4    1.5143E+01  2.3338E-01   1.4910E+01  0.000E+00  0.000E+00  0.000E+00  1.05797E+03  8.897E-01  1.200E+01  6.000E-02  1.297E+00
   1    8    6     2     5    1.4910E+01  2.3289E-01   1.4677E+01  0.000E+00  0.000E+00  0.000E+00  1.05324E+03  8.814E-01  1.200E+01  6.000E-02  1.294E+00
   1    3    5     3     1    2.0000E+00  2.8252E-01   1.7175E+00  0.000E+00  0.000E+00  0.000E+00  1.07555E+03  1.909E+00  9.636E+00  7.227E-02  1.955E+00
   1    3    6     3     2    1.7175E+00  2.4905E-01   1.4684E+00  0.000E+00  0.000E+00  0.000E+00  1.07264E+03  1.727E+00  8.909E+00  6.682E-02  1.864E+00
   1    3    7     3     3    1.4684E+00  1.9718E-01   1.2712E+00  0.000E+00  0.000E+00  0.000E+00  1.06987E+03  1.555E+00  8.218E+00  5.547E-02  1.777E+00
   1    4    8     3     4    1.2712E+00  2.2567E-01   1.0456E+00  0.000E+00  0.000E+00  0.000E+00  1.06682E+03  1.364E+00  7.455E+00  6.709E-02  1.682E+00
   1    5    8     3     5    1.0456E+00  1.5790E-01   8.8768E-01  0.000E+00  0.000E+00  0.000E+00  1.06362E+03  1.164E+00  6.655E+00  4.991E-02  1.582E+00
   1    6    8     3     6    8.8768E-01  5.5980E-02   8.3170E-01  0.000E+00  0.000E+00  0.000E+00  1.06158E+03  1.036E+00  6.145E+00  1.844E-02  1.518E+00
   1    5   10     4     1    1.0000E+01  9.0919E-02   9.9091E+00  0.000E+00  0.000E+00  0.000E+00  1.07836E+03  6.368E-01  1.000E+01  2.500E-02  1.212E+00
   1    5    9     4     2    9.9091E+00  1.8158E-01   9.7275E+00  0.000E+00  0.000E+00  0.000E+00  1.07154E+03  6.315E-01  1.000E+01  5.000E-02  1.211E+00
   1    6    8     4     3    9.7275E+00  1.2689E-01   9.6006E+00  0.000E+00  0.000E+00  0.000E+00  1.06381E+03  6.256E-01  1.000E+01  3.500E-02  1.209E+00
   1    6    8     5     1    1.0432E+01  2.2686E-01   1.0205E+01  0.000E+00  0.000E+00  0.000E+00  1.05868E+03  6.790E-01  1.542E+01  6.166E-02  1.226E+00
   1    7    7     5     2    1.0205E+01  2.7894E-01   9.9265E+00  0.000E+00  0.000E+00  0.000E+00  1.05417E+03  6.732E-01  1.519E+01  7.594E-02  1.224E+00
   1    8    7     5     3    9.9265E+00  1.9221E-01   9.7343E+00  0.000E+00  0.000E+00  0.000E+00  1.04992E+03  6.676E-01  1.497E+01  5.241E-02  1.223E+00
   1    8    6     5     4    9.7343E+00  1.3577E-01   9.5985E+00  0.000E+00  0.000E+00  0.000E+00  1.04691E+03  6.637E-01  1.482E+01  3.706E-02  1.221E+00
   1    9    6     6     1    2.4276E+01  2.5176E-01   2.4024E+01  0.000E+00  0.000E+00  0.000E+00  1.04392E+03  1.196E+00  1.200E+01  6.000E-02  1.399E+00
   1   10    7     6     2    2.4024E+01  2.5131E-01   2.3773E+01  0.000E+00  0.000E+00  0.000E+00  1.03937E+03  1.188E+00  1.200E+01  6.000E-02  1.396E+00
   1   11    7     6     3    2.3773E+01  2.5086E-01   2.3522E+01  0.000E+00  0.000E+00  0.000E+00  1.03482E+03  1.181E+00  1.200E+01  6.000E-02  1.394E+00
   1   12    7     6     4    2.3522E+01  2.5041E-01   2.3271E+01  0.000E+00  0.000E+00  0.000E+00  1.03026E+03  1.173E+00  1.200E+01  6.000E-02  1.391E+00
   1   13    7     6     5    2.3271E+01  4.1072E-03   2.3267E+01  0.000E+00  0.000E+00  0.000E+00  1.02708E+03  1.170E+00  1.200E+01  2.400E-02  5.704E-02
   1   14    9     7     1    1.5000E+02  1.3401E+00   1.4866E+02  0.000E+00  0.000E+00  0.000E+00  1.03987E+03  2.288E+00  5.529E+01  5.593E-01  7.987E-01
   1   13    8     7     2    1.4866E+02  1.8715E+00   1.4679E+02  0.000E+00  0.000E+00  0.000E+00  1.03478E+03  2.279E+00  5.526E+01  6.148E-01  1.015E+00
   1   13    7     7     3    1.4679E+02  1.5534E+00   1.4523E+02  0.000E+00  0.000E+00  0.000E+00  1.02969E+03  2.270E+00  5.522E+01  5.584E-01  9.273E-01
   1   13    6     8     1    1.6850E+02  1.0039E+00   1.6750E+02  0.000E+00  0.000E+00  0.000E+00  1.02481E+03  2.939E+00  4.262E+01  4.343E-01  7.705E-01
   1   13    5     8     2    1.6750E+02  2.6084E-01   1.6724E+02  0.000E+00  0.000E+00  0.000E+00  1.01856E+03  2.935E+00  4.256E+01  4.337E-01  2.005E-01
   1   13    4     8     3    1.6724E+02 -2.1337E+00   1.6937E+02  0.000E+00  0.000E+00  0.000E+00  1.01232E+03  2.941E+00  4.265E+01  4.346E+00 -1.637E-01
   1   13    3     8     4    1.6937E+02 -3.5122E+00   1.7288E+02  0.000E+00  0.000E+00  0.000E+00  1.00608E+03  2.960E+00  4.291E+01  4.373E+00 -2.677E-01
   1   13    2     8     5    1.7288E+02 -2.5509E+00   1.7543E+02  0.000E+00  0.000E+00  0.000E+00  9.99854E+02  2.979E+00  4.320E+01  4.402E+00 -1.932E-01
   1   13    1     8     6    1.7543E+02 -1.9785E+00   1.7741E+02  0.000E+00  0.000E+00  0.000E+00  9.94869E+02  2.994E+00  4.341E+01  2.654E+00 -2.485E-01





UNSATURATED ZONE PACKAGE VOLUMETRIC BUDGET FOR  TIME STEP    30 STRESS PERIOD   27
  ------------------------------------------------------------------------------



     CUMULATIVE VOLUMES      L**3       RATES FOR THIS TIME STEP      L**3/T
     ------------------                 ------------------------

           IN:                                      IN:
           ---                                      ---
        INFILTRATION =  1098961797.9688          INFILTRATION =           4.4075

          OUT:                                     OUT:
          ----                                     ----
              UZF ET =  1002293999.4084                UZF ET =           0.7250
        UZF RECHARGE =      797071.6500          UZF RECHARGE =       0.0000E+00

            IN - OUT =    95870726.9103              IN - OUT =           3.6825

          STORAGE:                                 STORAGE:
          --------                                 --------
      STORAGE CHANGE =    95872370.2789        STORAGE CHANGE =           3.6825

 PERCENT DISCREPANCY IS DIFFERENCE BETWEEN IN-OUT MINUS CHANGE IN STORAGE
 DIVIDED BY THE AVERAGE OF IN AND OUT TIMES 100

 PERCENT DISCREPANCY =          -0.00     PERCENT DISCREPANCY =           0.00






1
  VOLUMETRIC BUDGET FOR ENTIRE MODEL AT END OF TIME STEP   30, STRESS PERIOD  27
  ------------------------------------------------------------------------------

     CUMULATIVE VOLUMES      L**3       RATES FOR THIS TIME STEP      L**3/T
     ------------------                 ------------------------

           IN:                                      IN:
           ---                                      ---
               AG WELLS  =   797503936.0000                 AG WELLS  =           0.0000
      DIVERSION SEGMENTS =           0.0000        DIVERSION SEGMENTS =           0.0000
           GW IRRIGATION =           0.0000             GW IRRIGATION =           0.0000
           SW IRRIGATION =           0.0000             SW IRRIGATION =           0.0000
        SYSTEM LOSSES GW =           0.0000          SYSTEM LOSSES GW =           0.0000
        SYSTEM LOSSES SW =           0.0000          SYSTEM LOSSES SW =           0.0000

                TOTAL IN =   797503936.0000                  TOTAL IN =           0.0000

          OUT:                                     OUT:
          ----                                     ----
               AG WELLS  =           0.0000                 AG WELLS  =           0.0000
      DIVERSION SEGMENTS =           0.0000        DIVERSION SEGMENTS =           0.0000
           GW IRRIGATION =   797503936.0000             GW IRRIGATION =           0.0000
           SW IRRIGATION =           0.0000             SW IRRIGATION =           0.0000
        SYSTEM LOSSES GW =           0.0000          SYSTEM LOSSES GW =           0.0000
        SYSTEM LOSSES SW =           0.0000          SYSTEM LOSSES SW =           0.0000

               TOTAL OUT =   797503936.0000                 TOTAL OUT =           0.0000

                IN - OUT =           0.0000                  IN - OUT =           0.0000

     PERCENT DISCREPANCY =           0.00         PERCENT DISCREPANCY =           0.00



1
  VOLUMETRIC BUDGET FOR ENTIRE MODEL AT END OF TIME STEP   30, STRESS PERIOD  27
  ------------------------------------------------------------------------------

     CUMULATIVE VOLUMES      L**3       RATES FOR THIS TIME STEP      L**3/T
     ------------------                 ------------------------

           IN:                                      IN:
           ---                                      ---
             STORAGE     =  1118573312.0000               STORAGE     =           5.3454
       CONSTANT HEAD     =           0.0000         CONSTANT HEAD     =           0.0000
     HEAD DEP BOUNDS     =    19547800.0000       HEAD DEP BOUNDS     =           0.2861
      STREAM LEAKAGE     =   846201536.0000        STREAM LEAKAGE     =          11.7625
        UZF RECHARGE     =      797071.5625          UZF RECHARGE     =           0.0000
               GW ET     =           0.0000                 GW ET     =           0.0000
     SURFACE LEAKAGE     =           0.0000       SURFACE LEAKAGE     =           0.0000
           AG WELLS      =           0.0000             AG WELLS      =           0.0000

                TOTAL IN =  1985119616.0000                  TOTAL IN =          17.3940

          OUT:                                     OUT:
          ----                                     ----
             STORAGE     =   439559744.0000               STORAGE     =           6.9297
       CONSTANT HEAD     =           0.0000         CONSTANT HEAD     =           0.0000
     HEAD DEP BOUNDS     =    20108642.0000       HEAD DEP BOUNDS     =           0.2893
      STREAM LEAKAGE     =   710632576.0000        STREAM LEAKAGE     =          10.1754
        UZF RECHARGE     =           0.0000          UZF RECHARGE     =           0.0000
               GW ET     =    17319432.0000                 GW ET     =           0.0000
     SURFACE LEAKAGE     =           0.0000       SURFACE LEAKAGE     =           0.0000
           AG WELLS      =   797503936.0000             AG WELLS      =           0.0000

               TOTAL OUT =  1985124352.0000                 TOTAL OUT =          17.3944

                IN - OUT =       -4736.0000                  IN - OUT =      -4.5013E-04

     PERCENT DISCREPANCY =          -0.00         PERCENT DISCREPANCY =          -0.00






         TIME SUMMARY AT END OF TIME STEP   30 IN STRESS PERIOD   27
                    SECONDS     MINUTES      HOURS       DAYS        YEARS
                    -----------------------------------------------------------
   TIME STEP LENGTH  87667.      1461.1      24.352      1.0147     2.77799E-03
 STRESS PERIOD TIME 2.63000E+06  43833.      730.56      30.440     8.33397E-02
         TOTAL TIME 6.84668E+07 1.14111E+06  19019.      792.44      2.1696    
1
1
                            STRESS PERIOD NO.   28, LENGTH =   2630000.    
                            -----------------------------------------------

                              NUMBER OF TIME STEPS =    30

                               MULTIPLIER FOR DELT =     1.000

                            INITIAL TIME STEP SIZE =   87666.66    

 REUSING NON-PARAMETER GHB CELLS FROM LAST STRESS PERIOD

      2 GHB CELLS

 REUSING STREAM SEGMENT DATA FROM LAST STRESS PERIOD



            AREAL INFILTRATION RATE
 READING ON UNIT   19 WITH FORMAT: (10F4.0)            

            1           2           3           4           5           6           7           8           9          10
 ........................................................................................................................
   1   1.2000E-09   0.000       0.000       0.000       0.000       0.000       0.000       0.000       0.000       0.000    
   2   2.1000E-09  2.0000E-09  8.0000E-10  8.5000E-09   0.000       0.000       0.000       0.000       0.000       0.000    
   3   5.0000E-10  1.1000E-09  8.8000E-09  5.5000E-09   0.000       0.000       0.000       0.000       0.000       0.000    
   4   8.5000E-09  1.1000E-09  1.1000E-09  1.1000E-09  2.0000E-09   0.000       0.000       0.000       0.000       0.000    
   5   8.5000E-09  1.1000E-09  1.1000E-09  1.1000E-09  1.1000E-09   0.000       0.000       0.000       0.000       0.000    
   6   8.5000E-09  5.2000E-09  2.1000E-09  1.1000E-09  1.5000E-09   0.000       0.000       0.000       0.000       0.000    
   7   8.5000E-09  5.2000E-09  2.1000E-09  1.2000E-09  2.0000E-09   0.000       0.000       0.000       0.000       0.000    
   8   5.0000E-10  5.2000E-09  2.1000E-09  1.2000E-09  5.0000E-09   0.000       0.000       0.000       0.000       0.000    
   9   5.0000E-10  5.2000E-09  2.1000E-09  1.2000E-09  5.0000E-09   0.000       0.000       0.000       0.000       0.000    
  10   5.0000E-10  5.2000E-09  2.1000E-09  1.2000E-09  5.8000E-09   0.000       0.000       0.000       0.000       0.000    
  11   1.0000E-10  1.1000E-09  1.1000E-09  1.2000E-09  5.0000E-09   0.000       0.000       0.000       0.000       0.000    
  12   1.1000E-09  1.1000E-09  1.1000E-09  1.1000E-09  2.0000E-09   0.000       0.000       0.000       0.000       0.000    
  13   1.1000E-09  2.2000E-09  2.2000E-09  2.1000E-09  1.0000E-09   0.000       0.000       0.000       0.000       0.000    
  14   2.0000E-10  5.5000E-09  5.5000E-09  5.2000E-09  1.0000E-09   0.000       0.000       0.000       0.000       0.000    
  15    0.000      8.8000E-09  8.8000E-09   0.000       0.000       0.000       0.000       0.000       0.000       0.000    

                  ET RATE =  5.000000E-10

 USING ET EXTINCTION DEPTH FROM PREVIOUS STRESS PERIOD. CURRENT PERIOD IS:      28

 USING EXTINCTION WATER CONTENT FROM PREVIOUS STRESS PERIOD. CURRENT PERIOD IS:      28

 USING AIR ENTRY PRESSURE FROM PREVIOUS STRESS PERIOD. CURRENT PERIOD IS:      28

 USING ROOT PRESSURE HEAD FROM PREVIOUS STRESS PERIOD. CURRENT PERIOD IS:      28

 USING ROOT ACTIVITY FROM PREVIOUS STRESS PERIOD. CURRENT PERIOD IS:      28

 PROCESSING AG STRESS PERIOD DATA

 READING AG STRESS PERIOD DATA

 READING IRRIGATION WELL

 END PROCESSING AG STRESS PERIOD DATA OPTIONS
 
 SOLVING FOR HEAD 
                                                   Max.-Head-Change                         Max.-Flux-Residual
  Residual-Control   Outer-Iter.   Inner-Iter.     Column Row Layer    Maximum-Head-Change  Column Row Layer    Maximum-Flux-Residual          L2-NORM 
          0                 1           2             4    7     1       0.1318241124E-01       4    7    1         0.6906984195E+00      0.1813926368E+01
          0                 2           2             4    7     1      -0.1282292455E-02       4    7    1        -0.6907006419E-01      0.1813911823E+00
          0                 3           1             4    7     1       0.8731933279E-04       4    7    1         0.4834904487E-02      0.1269722965E-01

    ------------------------------------------------
       NWT REQUIRED            3 OUTER ITERATIONS 
       AND A TOTAL OF          5 INNER ITERATIONS.
    ------------------------------------------------

 NO OUTPUT CONTROL FOR STRESS PERIOD   28   TIME STEP    1
 
 SOLVING FOR HEAD 
                                                   Max.-Head-Change                         Max.-Flux-Residual
  Residual-Control   Outer-Iter.   Inner-Iter.     Column Row Layer    Maximum-Head-Change  Column Row Layer    Maximum-Flux-Residual          L2-NORM 
          0                 1           2             4    7     1       0.1307295499E-01       4    7    1         0.6849352829E+00      0.1802292048E+01
          0                 2           2             4    7     1      -0.1271645280E-02       4    7    1        -0.6849374599E-01      0.1802254894E+00
          0                 3           1             4    7     1       0.8659430019E-04       4    7    1         0.4794562240E-02      0.1264576020E-01

    ------------------------------------------------
       NWT REQUIRED            3 OUTER ITERATIONS 
       AND A TOTAL OF          5 INNER ITERATIONS.
    ------------------------------------------------

 NO OUTPUT CONTROL FOR STRESS PERIOD   28   TIME STEP    2
 
 SOLVING FOR HEAD 
                                                   Max.-Head-Change                         Max.-Flux-Residual
  Residual-Control   Outer-Iter.   Inner-Iter.     Column Row Layer    Maximum-Head-Change  Column Row Layer    Maximum-Flux-Residual          L2-NORM 
          0                 1           2             4    7     1       0.1296502047E-01       4    7    1         0.6792527818E+00      0.1790793901E+01
          0                 2           2             4    7     1      -0.1261146129E-02       4    7    1        -0.6792549150E-01      0.1790779446E+00
          0                 3           1             4    7     1       0.8587934763E-04       4    7    1         0.4754784445E-02      0.1253530619E-01

    ------------------------------------------------
       NWT REQUIRED            3 OUTER ITERATIONS 
       AND A TOTAL OF          5 INNER ITERATIONS.
    ------------------------------------------------

 NO OUTPUT CONTROL FOR STRESS PERIOD   28   TIME STEP    3
 
 SOLVING FOR HEAD 
                                                   Max.-Head-Change                         Max.-Flux-Residual
  Residual-Control   Outer-Iter.   Inner-Iter.     Column Row Layer    Maximum-Head-Change  Column Row Layer    Maximum-Flux-Residual          L2-NORM 
          0                 1           2             4    7     1       0.1285843612E-01       4    7    1         0.6736418389E+00      0.1779416358E+01
          0                 2           2             4    7     1      -0.1250778314E-02       4    7    1        -0.6736439291E-01      0.1779402176E+00
          0                 3           1             4    7     1       0.8517333860E-04       4    7    1         0.4715507579E-02      0.1245567602E-01

    ------------------------------------------------
       NWT REQUIRED            3 OUTER ITERATIONS 
       AND A TOTAL OF          5 INNER ITERATIONS.
    ------------------------------------------------

 NO OUTPUT CONTROL FOR STRESS PERIOD   28   TIME STEP    4
 
 SOLVING FOR HEAD 
                                                   Max.-Head-Change                         Max.-Flux-Residual
  Residual-Control   Outer-Iter.   Inner-Iter.     Column Row Layer    Maximum-Head-Change  Column Row Layer    Maximum-Flux-Residual          L2-NORM 
          0                 1           2             4    7     1       0.1275331220E-01       4    7    1         0.6681082409E+00      0.1768166755E+01
          0                 2           2             4    7     1      -0.1240552561E-02       4    7    1        -0.6681102892E-01      0.1768152590E+00
          0                 3           1             4    7     1       0.8447700300E-04       4    7    1         0.4676772110E-02      0.1237695509E-01

    ------------------------------------------------
       NWT REQUIRED            3 OUTER ITERATIONS 
       AND A TOTAL OF          5 INNER ITERATIONS.
    ------------------------------------------------

 NO OUTPUT CONTROL FOR STRESS PERIOD   28   TIME STEP    5
 
 SOLVING FOR HEAD 
                                                   Max.-Head-Change                         Max.-Flux-Residual
  Residual-Control   Outer-Iter.   Inner-Iter.     Column Row Layer    Maximum-Head-Change  Column Row Layer    Maximum-Flux-Residual          L2-NORM 
          0                 1           2             4    7     1       0.1264948019E-01       4    7    1         0.6626430222E+00      0.1757040983E+01
          0                 2           2             4    7     1      -0.1230452477E-02       4    7    1        -0.6626450301E-01      0.1757026847E+00
          0                 3           1             4    7     1       0.8378922527E-04       4    7    1         0.4638515322E-02      0.1229905299E-01

    ------------------------------------------------
       NWT REQUIRED            3 OUTER ITERATIONS 
       AND A TOTAL OF          5 INNER ITERATIONS.
    ------------------------------------------------

 NO OUTPUT CONTROL FOR STRESS PERIOD   28   TIME STEP    6
 
 SOLVING FOR HEAD 
                                                   Max.-Head-Change                         Max.-Flux-Residual
  Residual-Control   Outer-Iter.   Inner-Iter.     Column Row Layer    Maximum-Head-Change  Column Row Layer    Maximum-Flux-Residual          L2-NORM 
          0                 1           2             4    7     1       0.1254692113E-01       4    7    1         0.6572447868E+00      0.1746045019E+01
          0                 2           2             4    7     1      -0.1220476218E-02       4    7    1        -0.6572467546E-01      0.1746030816E+00
          0                 3           1             4    7     1       0.8310987949E-04       4    7    1         0.4600727409E-02      0.1222206661E-01

    ------------------------------------------------
       NWT REQUIRED            3 OUTER ITERATIONS 
       AND A TOTAL OF          5 INNER ITERATIONS.
    ------------------------------------------------

 NO OUTPUT CONTROL FOR STRESS PERIOD   28   TIME STEP    7
 
 SOLVING FOR HEAD 
                                                   Max.-Head-Change                         Max.-Flux-Residual
  Residual-Control   Outer-Iter.   Inner-Iter.     Column Row Layer    Maximum-Head-Change  Column Row Layer    Maximum-Flux-Residual          L2-NORM 
          0                 1           2             4    7     1       0.1244574203E-01       4    7    1         0.6519198933E+00      0.1735161453E+01
          0                 2           2             4    7     1      -0.1210634193E-02       4    7    1        -0.6519218224E-01      0.1735147221E+00
          0                 3           1             4    7     1       0.8243967451E-04       4    7    1         0.4563452892E-02      0.1214588659E-01

    ------------------------------------------------
       NWT REQUIRED            3 OUTER ITERATIONS 
       AND A TOTAL OF          5 INNER ITERATIONS.
    ------------------------------------------------

 NO OUTPUT CONTROL FOR STRESS PERIOD   28   TIME STEP    8
 
 SOLVING FOR HEAD 
                                                   Max.-Head-Change                         Max.-Flux-Residual
  Residual-Control   Outer-Iter.   Inner-Iter.     Column Row Layer    Maximum-Head-Change  Column Row Layer    Maximum-Flux-Residual          L2-NORM 
          0                 1           2             4    7     1       0.1234591635E-01       4    7    1         0.6466665489E+00      0.1724403713E+01
          0                 2           2             4    7     1      -0.1200923820E-02       4    7    1        -0.6466684403E-01      0.1724389585E+00
          0                 3           1             4    7     1       0.8177843459E-04       4    7    1         0.4526679231E-02      0.1207060484E-01

    ------------------------------------------------
       NWT REQUIRED            3 OUTER ITERATIONS 
       AND A TOTAL OF          5 INNER ITERATIONS.
    ------------------------------------------------

 NO OUTPUT CONTROL FOR STRESS PERIOD   28   TIME STEP    9
 
 SOLVING FOR HEAD 
                                                   Max.-Head-Change                         Max.-Flux-Residual
  Residual-Control   Outer-Iter.   Inner-Iter.     Column Row Layer    Maximum-Head-Change  Column Row Layer    Maximum-Flux-Residual          L2-NORM 
          0                 1           2             4    7     1       0.1224727829E-01       4    7    1         0.6414760343E+00      0.1713758409E+01
          0                 2           2             4    7     1      -0.1191328972E-02       4    7    1        -0.6414778889E-01      0.1713744316E+00
          0                 3           1             4    7     1       0.8112506158E-04       4    7    1         0.4490345406E-02      0.1199608845E-01

    ------------------------------------------------
       NWT REQUIRED            3 OUTER ITERATIONS 
       AND A TOTAL OF          5 INNER ITERATIONS.
    ------------------------------------------------

 NO OUTPUT CONTROL FOR STRESS PERIOD   28   TIME STEP   10
 
 SOLVING FOR HEAD 
                                                   Max.-Head-Change                         Max.-Flux-Residual
  Residual-Control   Outer-Iter.   Inner-Iter.     Column Row Layer    Maximum-Head-Change  Column Row Layer    Maximum-Flux-Residual          L2-NORM 
          0                 1           2             4    7     1       0.1214980837E-01       4    7    1         0.6363470958E+00      0.1703231676E+01
          0                 2           2             4    7     1      -0.1181847754E-02       4    7    1        -0.6363489144E-01      0.1703217973E+00
          0                 3           1             4    7     1       0.8047942683E-04       4    7    1         0.4454442615E-02      0.1192238883E-01

    ------------------------------------------------
       NWT REQUIRED            3 OUTER ITERATIONS 
       AND A TOTAL OF          5 INNER ITERATIONS.
    ------------------------------------------------

 NO OUTPUT CONTROL FOR STRESS PERIOD   28   TIME STEP   11
 
 SOLVING FOR HEAD 
                                                   Max.-Head-Change                         Max.-Flux-Residual
  Residual-Control   Outer-Iter.   Inner-Iter.     Column Row Layer    Maximum-Head-Change  Column Row Layer    Maximum-Flux-Residual          L2-NORM 
          0                 1           2             4    7     1       0.1205361838E-01       4    7    1         0.6312860658E+00      0.1692815850E+01
          0                 2           2             4    7     1      -0.1172491038E-02       4    7    1        -0.6312878494E-01      0.1692802059E+00
          0                 3           1             4    7     1       0.7984226925E-04       4    7    1         0.4419015157E-02      0.1184948085E-01

    ------------------------------------------------
       NWT REQUIRED            3 OUTER ITERATIONS 
       AND A TOTAL OF          5 INNER ITERATIONS.
    ------------------------------------------------

 NO OUTPUT CONTROL FOR STRESS PERIOD   28   TIME STEP   12
 
 SOLVING FOR HEAD 
                                                   Max.-Head-Change                         Max.-Flux-Residual
  Residual-Control   Outer-Iter.   Inner-Iter.     Column Row Layer    Maximum-Head-Change  Column Row Layer    Maximum-Flux-Residual          L2-NORM 
          0                 1           2             4    7     1       0.1195868425E-01       4    7    1         0.6262913979E+00      0.1682519086E+01
          0                 2           2             4    7     1      -0.1163256485E-02       4    7    1        -0.6262931473E-01      0.1682505348E+00
          0                 3           1             4    7     1       0.7921343133E-04       4    7    1         0.4384052269E-02      0.1177739498E-01

    ------------------------------------------------
       NWT REQUIRED            3 OUTER ITERATIONS 
       AND A TOTAL OF          5 INNER ITERATIONS.
    ------------------------------------------------

 NO OUTPUT CONTROL FOR STRESS PERIOD   28   TIME STEP   13
 
 SOLVING FOR HEAD 
                                                   Max.-Head-Change                         Max.-Flux-Residual
  Residual-Control   Outer-Iter.   Inner-Iter.     Column Row Layer    Maximum-Head-Change  Column Row Layer    Maximum-Flux-Residual          L2-NORM 
          0                 1           2             4    7     1       0.1186484430E-01       4    7    1         0.6213545015E+00      0.1672332266E+01
          0                 2           2             4    7     1      -0.1154128367E-02       4    7    1        -0.6213562173E-01      0.1672318722E+00
          0                 3           1             4    7     1       0.7859184034E-04       4    7    1         0.4349493765E-02      0.1170609257E-01

    ------------------------------------------------
       NWT REQUIRED            3 OUTER ITERATIONS 
       AND A TOTAL OF          5 INNER ITERATIONS.
    ------------------------------------------------

 NO OUTPUT CONTROL FOR STRESS PERIOD   28   TIME STEP   14
 
 SOLVING FOR HEAD 
                                                   Max.-Head-Change                         Max.-Flux-Residual
  Residual-Control   Outer-Iter.   Inner-Iter.     Column Row Layer    Maximum-Head-Change  Column Row Layer    Maximum-Flux-Residual          L2-NORM 
          0                 1           2             4    7     1       0.1177221469E-01       4    7    1         0.6164816795E+00      0.1662248326E+01
          0                 2           2             4    7     1      -0.1145117984E-02       4    7    1        -0.6164833626E-01      0.1662234796E+00
          0                 3           1             4    7     1       0.7797826737E-04       4    7    1         0.4315383808E-02      0.1163551339E-01

    ------------------------------------------------
       NWT REQUIRED            3 OUTER ITERATIONS 
       AND A TOTAL OF          5 INNER ITERATIONS.
    ------------------------------------------------

 NO OUTPUT CONTROL FOR STRESS PERIOD   28   TIME STEP   15
 
 SOLVING FOR HEAD 
                                                   Max.-Head-Change                         Max.-Flux-Residual
  Residual-Control   Outer-Iter.   Inner-Iter.     Column Row Layer    Maximum-Head-Change  Column Row Layer    Maximum-Flux-Residual          L2-NORM 
          0                 1           2             4    7     1       0.1168063365E-01       4    7    1         0.6116642684E+00      0.1652269897E+01
          0                 2           2             4    7     1      -0.1136209598E-02       4    7    1        -0.6116659197E-01      0.1652256385E+00
          0                 3           1             4    7     1       0.7737163981E-04       4    7    1         0.4281661718E-02      0.1156566313E-01

    ------------------------------------------------
       NWT REQUIRED            3 OUTER ITERATIONS 
       AND A TOTAL OF          5 INNER ITERATIONS.
    ------------------------------------------------

 NO OUTPUT CONTROL FOR STRESS PERIOD   28   TIME STEP   16
 
 SOLVING FOR HEAD 
                                                   Max.-Head-Change                         Max.-Flux-Residual
  Residual-Control   Outer-Iter.   Inner-Iter.     Column Row Layer    Maximum-Head-Change  Column Row Layer    Maximum-Flux-Residual          L2-NORM 
          0                 1           2             4    7     1       0.1159022160E-01       4    7    1         0.6069085667E+00      0.1642407576E+01
          0                 2           2             4    7     1      -0.1127414925E-02       4    7    1        -0.6069101869E-01      0.1642393978E+00
          0                 3           1             4    7     1       0.7677275525E-04       4    7    1         0.4248371610E-02      0.1149662786E-01

    ------------------------------------------------
       NWT REQUIRED            3 OUTER ITERATIONS 
       AND A TOTAL OF          5 INNER ITERATIONS.
    ------------------------------------------------

 NO OUTPUT CONTROL FOR STRESS PERIOD   28   TIME STEP   17
 
 SOLVING FOR HEAD 
                                                   Max.-Head-Change                         Max.-Flux-Residual
  Residual-Control   Outer-Iter.   Inner-Iter.     Column Row Layer    Maximum-Head-Change  Column Row Layer    Maximum-Flux-Residual          L2-NORM 
          0                 1           2             4    7     1       0.1150095448E-01       4    7    1         0.6022134755E+00      0.1632649692E+01
          0                 2           2             4    7     1      -0.1118731623E-02       4    7    1        -0.6022150653E-01      0.1632636139E+00
          0                 3           1             4    7     1       0.7618145501E-04       4    7    1         0.4215505776E-02      0.1142831376E-01

    ------------------------------------------------
       NWT REQUIRED            3 OUTER ITERATIONS 
       AND A TOTAL OF          5 INNER ITERATIONS.
    ------------------------------------------------

 NO OUTPUT CONTROL FOR STRESS PERIOD   28   TIME STEP   18
 
 SOLVING FOR HEAD 
                                                   Max.-Head-Change                         Max.-Flux-Residual
  Residual-Control   Outer-Iter.   Inner-Iter.     Column Row Layer    Maximum-Head-Change  Column Row Layer    Maximum-Flux-Residual          L2-NORM 
          0                 1           2             4    7     1       0.1141267394E-01       4    7    1         0.5975704033E+00      0.1622986176E+01
          0                 2           2             4    7     1      -0.1110144290E-02       4    7    1        -0.5975719633E-01      0.1622973149E+00
          0                 3           1             4    7     1       0.7559669003E-04       4    7    1         0.4183004073E-02      0.1136071893E-01

    ------------------------------------------------
       NWT REQUIRED            3 OUTER ITERATIONS 
       AND A TOTAL OF          5 INNER ITERATIONS.
    ------------------------------------------------

 NO OUTPUT CONTROL FOR STRESS PERIOD   28   TIME STEP   19
 
 SOLVING FOR HEAD 
                                                   Max.-Head-Change                         Max.-Flux-Residual
  Residual-Control   Outer-Iter.   Inner-Iter.     Column Row Layer    Maximum-Head-Change  Column Row Layer    Maximum-Flux-Residual          L2-NORM 
          0                 1           2             4    7     1       0.1132549871E-01       4    7    1         0.5929858273E+00      0.1613429835E+01
          0                 2           2             4    7     1      -0.1101664474E-02       4    7    1        -0.5929873586E-01      0.1613416588E+00
          0                 3           1             4    7     1       0.7501924606E-04       4    7    1         0.4150911842E-02      0.1129371355E-01

    ------------------------------------------------
       NWT REQUIRED            3 OUTER ITERATIONS 
       AND A TOTAL OF          5 INNER ITERATIONS.
    ------------------------------------------------

 NO OUTPUT CONTROL FOR STRESS PERIOD   28   TIME STEP   20
 
 SOLVING FOR HEAD 
                                                   Max.-Head-Change                         Max.-Flux-Residual
  Residual-Control   Outer-Iter.   Inner-Iter.     Column Row Layer    Maximum-Head-Change  Column Row Layer    Maximum-Flux-Residual          L2-NORM 
          0                 1           2             4    7     1       0.1123940949E-01       4    7    1         0.5884585598E+00      0.1603971618E+01
          0                 2           2             4    7     1      -0.1093290299E-02       4    7    1        -0.5884600626E-01      0.1603958399E+00
          0                 3           1             4    7     1       0.7444899696E-04       4    7    1         0.4119220815E-02      0.1122759667E-01

    ------------------------------------------------
       NWT REQUIRED            3 OUTER ITERATIONS 
       AND A TOTAL OF          5 INNER ITERATIONS.
    ------------------------------------------------

 NO OUTPUT CONTROL FOR STRESS PERIOD   28   TIME STEP   21
 
 SOLVING FOR HEAD 
                                                   Max.-Head-Change                         Max.-Flux-Residual
  Residual-Control   Outer-Iter.   Inner-Iter.     Column Row Layer    Maximum-Head-Change  Column Row Layer    Maximum-Flux-Residual          L2-NORM 
          0                 1           2             4    7     1       0.1115424618E-01       4    7    1         0.5839802559E+00      0.1594607996E+01
          0                 2           2             4    7     1      -0.1085006190E-02       4    7    1        -0.5839817312E-01      0.1594594983E+00
          0                 3           1             4    7     1       0.7388488030E-04       4    7    1         0.4087872504E-02      0.1116202721E-01

    ------------------------------------------------
       NWT REQUIRED            3 OUTER ITERATIONS 
       AND A TOTAL OF          5 INNER ITERATIONS.
    ------------------------------------------------

 NO OUTPUT CONTROL FOR STRESS PERIOD   28   TIME STEP   22
 
 SOLVING FOR HEAD 
                                                   Max.-Head-Change                         Max.-Flux-Residual
  Residual-Control   Outer-Iter.   Inner-Iter.     Column Row Layer    Maximum-Head-Change  Column Row Layer    Maximum-Flux-Residual          L2-NORM 
          0                 1           2             4    7     1       0.1107013186E-01       4    7    1         0.5795573035E+00      0.1585345912E+01
          0                 2           2             4    7     1      -0.1076824120E-02       4    7    1        -0.5795587515E-01      0.1585333144E+00
          0                 3           1             4    7     1       0.7332771166E-04       4    7    1         0.4056911645E-02      0.1109723754E-01

    ------------------------------------------------
       NWT REQUIRED            3 OUTER ITERATIONS 
       AND A TOTAL OF          5 INNER ITERATIONS.
    ------------------------------------------------

 NO OUTPUT CONTROL FOR STRESS PERIOD   28   TIME STEP   23
 
 SOLVING FOR HEAD 
                                                   Max.-Head-Change                         Max.-Flux-Residual
  Residual-Control   Outer-Iter.   Inner-Iter.     Column Row Layer    Maximum-Head-Change  Column Row Layer    Maximum-Flux-Residual          L2-NORM 
          0                 1           2             4    7     1       0.1098704548E-01       4    7    1         0.5751887389E+00      0.1576165036E+01
          0                 2           2             4    7     1      -0.1068742042E-02       4    7    1        -0.5751901606E-01      0.1576166338E+00
          0                 3           1             4    7     1       0.7277735210E-04       4    7    1         0.4026331513E-02      0.1103318013E-01

    ------------------------------------------------
       NWT REQUIRED            3 OUTER ITERATIONS 
       AND A TOTAL OF          5 INNER ITERATIONS.
    ------------------------------------------------

 NO OUTPUT CONTROL FOR STRESS PERIOD   28   TIME STEP   24
 
 SOLVING FOR HEAD 
                                                   Max.-Head-Change                         Max.-Flux-Residual
  Residual-Control   Outer-Iter.   Inner-Iter.     Column Row Layer    Maximum-Head-Change  Column Row Layer    Maximum-Flux-Residual          L2-NORM 
          0                 1           2             4    7     1       0.1090496773E-01       4    7    1         0.5708734719E+00      0.1567455734E+01
          0                 2           2             4    7     1      -0.1060758075E-02       4    7    1        -0.5708748676E-01      0.1567629572E+00
          0                 3           1             4    7     1       0.7223367407E-04       4    7    1         0.3996124464E-02      0.1098347424E-01

    ------------------------------------------------
       NWT REQUIRED            3 OUTER ITERATIONS 
       AND A TOTAL OF          5 INNER ITERATIONS.
    ------------------------------------------------

 NO OUTPUT CONTROL FOR STRESS PERIOD   28   TIME STEP   25
 
 SOLVING FOR HEAD 
                                                   Max.-Head-Change                         Max.-Flux-Residual
  Residual-Control   Outer-Iter.   Inner-Iter.     Column Row Layer    Maximum-Head-Change  Column Row Layer    Maximum-Flux-Residual          L2-NORM 
          0                 1           2             4    7     1       0.1082388050E-01       4    7    1         0.5666105002E+00      0.1558364674E+01
          0                 2           2             4    7     1      -0.1052870462E-02       4    7    1        -0.5666118710E-01      0.1558484419E+00
          0                 3           1             4    7     1       0.7169655746E-04       4    7    1         0.3966283517E-02      0.1091678950E-01

    ------------------------------------------------
       NWT REQUIRED            3 OUTER ITERATIONS 
       AND A TOTAL OF          5 INNER ITERATIONS.
    ------------------------------------------------

 NO OUTPUT CONTROL FOR STRESS PERIOD   28   TIME STEP   26
 
 SOLVING FOR HEAD 
                                                   Max.-Head-Change                         Max.-Flux-Residual
  Residual-Control   Outer-Iter.   Inner-Iter.     Column Row Layer    Maximum-Head-Change  Column Row Layer    Maximum-Flux-Residual          L2-NORM 
          0                 1           2             4    7     1       0.1074362716E-01       4    7    1         0.5623915405E+00      0.1549384870E+01
          0                 2           2             4    7     1      -0.1045063964E-02       4    7    1        -0.5623928866E-01      0.1549464792E+00
          0                 3           1             4    7     1       0.7116496420E-04       4    7    1         0.3936750632E-02      0.1085164167E-01

    ------------------------------------------------
       NWT REQUIRED            3 OUTER ITERATIONS 
       AND A TOTAL OF          5 INNER ITERATIONS.
    ------------------------------------------------

 NO OUTPUT CONTROL FOR STRESS PERIOD   28   TIME STEP   27
 
 SOLVING FOR HEAD 
                                                   Max.-Head-Change                         Max.-Flux-Residual
  Residual-Control   Outer-Iter.   Inner-Iter.     Column Row Layer    Maximum-Head-Change  Column Row Layer    Maximum-Flux-Residual          L2-NORM 
          0                 1           2             4    7     1       0.1066433365E-01       4    7    1         0.5582231615E+00      0.1540521681E+01
          0                 2           2             4    7     1      -0.1037350832E-02       4    7    1        -0.5582244833E-01      0.1540572994E+00
          0                 3           1             4    7     1       0.7063972858E-04       4    7    1         0.3907571816E-02      0.1078766990E-01

    ------------------------------------------------
       NWT REQUIRED            3 OUTER ITERATIONS 
       AND A TOTAL OF          5 INNER ITERATIONS.
    ------------------------------------------------

 NO OUTPUT CONTROL FOR STRESS PERIOD   28   TIME STEP   28
 
 SOLVING FOR HEAD 
                                                   Max.-Head-Change                         Max.-Flux-Residual
  Residual-Control   Outer-Iter.   Inner-Iter.     Column Row Layer    Maximum-Head-Change  Column Row Layer    Maximum-Flux-Residual          L2-NORM 
          0                 1           2             4    7     1       0.1058597893E-01       4    7    1         0.5541045486E+00      0.1531762126E+01
          0                 2           2             4    7     1      -0.1029729019E-02       4    7    1        -0.5541058470E-01      0.1531792926E+00
          0                 3           1             4    7     1       0.7012071191E-04       4    7    1         0.3878741383E-02      0.1072529744E-01

    ------------------------------------------------
       NWT REQUIRED            3 OUTER ITERATIONS 
       AND A TOTAL OF          5 INNER ITERATIONS.
    ------------------------------------------------

 NO OUTPUT CONTROL FOR STRESS PERIOD   28   TIME STEP   29
 
 SOLVING FOR HEAD 
                                                   Max.-Head-Change                         Max.-Flux-Residual
  Residual-Control   Outer-Iter.   Inner-Iter.     Column Row Layer    Maximum-Head-Change  Column Row Layer    Maximum-Flux-Residual          L2-NORM 
          0                 1           2             4    7     1       0.1050841428E-01       4    7    1         0.5500272641E+00      0.1523104191E+01
          0                 2           2             4    7     1      -0.1022184060E-02       4    7    1        -0.5500285394E-01      0.1523120214E+00
          0                 3           1             4    7     1       0.6960692820E-04       4    7    1         0.3850200221E-02      0.1066376623E-01

    ------------------------------------------------
       NWT REQUIRED            3 OUTER ITERATIONS 
       AND A TOTAL OF          5 INNER ITERATIONS.
    ------------------------------------------------

 NO OUTPUT CONTROL FOR STRESS PERIOD   28   TIME STEP   30



 STREAM LISTING     PERIOD     28   STEP       30

 LAYER ROW COL. STREAM  RCH.  FLOW INTO     FLOW TO   FLOW OUT OF   OVRLND.     DIRECT     STREAM       STREAM     STREAM     STREAM   STREAMBED  STREAMBED
                SEG.NO.  NO.  STRM. RCH.    AQUIFER    STRM. RCH.    RUNOFF     PRECIP       ET          HEAD       DEPTH      WIDTH   CONDCTNC.   GRADIENT

   1    1    1     1     1    1.9000E+01  2.1427E-01   1.8786E+01  0.000E+00  0.000E+00  0.000E+00  1.09413E+03  1.082E+00  1.166E+01  5.249E-02  1.361E+00
   1    2    2     1     2    1.8786E+01  3.3054E-01   1.8455E+01  0.000E+00  0.000E+00  0.000E+00  1.08914E+03  1.077E+00  1.158E+01  8.107E-02  1.359E+00
   1    3    3     1     3    1.8455E+01  2.8064E-01   1.8175E+01  0.000E+00  0.000E+00  0.000E+00  1.08349E+03  1.072E+00  1.149E+01  6.892E-02  1.357E+00
   1    3    4     1     4    1.8175E+01  2.5740E-01   1.7917E+01  0.000E+00  0.000E+00  0.000E+00  1.07848E+03  1.068E+00  1.140E+01  6.328E-02  1.356E+00
   1    4    5     2     1    1.5917E+01  3.0542E-01   1.5612E+01  0.000E+00  0.000E+00  0.000E+00  1.07285E+03  9.157E-01  1.200E+01  7.800E-02  1.305E+00
   1    5    6     2     2    1.5612E+01  2.3438E-01   1.5377E+01  0.000E+00  0.000E+00  0.000E+00  1.06742E+03  9.063E-01  1.200E+01  6.000E-02  1.302E+00
   1    6    6     2     3    1.5377E+01  2.3388E-01   1.5143E+01  0.000E+00  0.000E+00  0.000E+00  1.06269E+03  8.980E-01  1.200E+01  6.000E-02  1.299E+00
   1    7    6     2     4    1.5143E+01  2.3338E-01   1.4910E+01  0.000E+00  0.000E+00  0.000E+00  1.05797E+03  8.897E-01  1.200E+01  6.000E-02  1.297E+00
   1    8    6     2     5    1.4910E+01  2.3289E-01   1.4677E+01  0.000E+00  0.000E+00  0.000E+00  1.05324E+03  8.814E-01  1.200E+01  6.000E-02  1.294E+00
   1    3    5     3     1    2.0000E+00  2.8252E-01   1.7175E+00  0.000E+00  0.000E+00  0.000E+00  1.07555E+03  1.909E+00  9.636E+00  7.227E-02  1.955E+00
   1    3    6     3     2    1.7175E+00  2.4905E-01   1.4684E+00  0.000E+00  0.000E+00  0.000E+00  1.07264E+03  1.727E+00  8.909E+00  6.682E-02  1.864E+00
   1    3    7     3     3    1.4684E+00  1.9718E-01   1.2712E+00  0.000E+00  0.000E+00  0.000E+00  1.06987E+03  1.555E+00  8.218E+00  5.547E-02  1.777E+00
   1    4    8     3     4    1.2712E+00  2.2567E-01   1.0456E+00  0.000E+00  0.000E+00  0.000E+00  1.06682E+03  1.364E+00  7.455E+00  6.709E-02  1.682E+00
   1    5    8     3     5    1.0456E+00  1.5790E-01   8.8768E-01  0.000E+00  0.000E+00  0.000E+00  1.06362E+03  1.164E+00  6.655E+00  4.991E-02  1.582E+00
   1    6    8     3     6    8.8768E-01  5.5980E-02   8.3170E-01  0.000E+00  0.000E+00  0.000E+00  1.06158E+03  1.036E+00  6.145E+00  1.844E-02  1.518E+00
   1    5   10     4     1    1.0000E+01  9.0919E-02   9.9091E+00  0.000E+00  0.000E+00  0.000E+00  1.07836E+03  6.368E-01  1.000E+01  2.500E-02  1.212E+00
   1    5    9     4     2    9.9091E+00  1.8158E-01   9.7275E+00  0.000E+00  0.000E+00  0.000E+00  1.07154E+03  6.315E-01  1.000E+01  5.000E-02  1.211E+00
   1    6    8     4     3    9.7275E+00  1.2689E-01   9.6006E+00  0.000E+00  0.000E+00  0.000E+00  1.06381E+03  6.256E-01  1.000E+01  3.500E-02  1.209E+00
   1    6    8     5     1    1.0432E+01  2.2686E-01   1.0205E+01  0.000E+00  0.000E+00  0.000E+00  1.05868E+03  6.790E-01  1.542E+01  6.166E-02  1.226E+00
   1    7    7     5     2    1.0205E+01  2.7894E-01   9.9265E+00  0.000E+00  0.000E+00  0.000E+00  1.05417E+03  6.732E-01  1.519E+01  7.594E-02  1.224E+00
   1    8    7     5     3    9.9265E+00  1.9221E-01   9.7343E+00  0.000E+00  0.000E+00  0.000E+00  1.04992E+03  6.676E-01  1.497E+01  5.241E-02  1.223E+00
   1    8    6     5     4    9.7343E+00  1.3577E-01   9.5985E+00  0.000E+00  0.000E+00  0.000E+00  1.04691E+03  6.637E-01  1.482E+01  3.706E-02  1.221E+00
   1    9    6     6     1    2.4276E+01  2.5176E-01   2.4024E+01  0.000E+00  0.000E+00  0.000E+00  1.04392E+03  1.196E+00  1.200E+01  6.000E-02  1.399E+00
   1   10    7     6     2    2.4024E+01  2.5131E-01   2.3773E+01  0.000E+00  0.000E+00  0.000E+00  1.03937E+03  1.188E+00  1.200E+01  6.000E-02  1.396E+00
   1   11    7     6     3    2.3773E+01  2.5086E-01   2.3522E+01  0.000E+00  0.000E+00  0.000E+00  1.03482E+03  1.181E+00  1.200E+01  6.000E-02  1.394E+00
   1   12    7     6     4    2.3522E+01  2.5041E-01   2.3271E+01  0.000E+00  0.000E+00  0.000E+00  1.03026E+03  1.173E+00  1.200E+01  6.000E-02  1.391E+00
   1   13    7     6     5    2.3271E+01  4.7419E-03   2.3267E+01  0.000E+00  0.000E+00  0.000E+00  1.02708E+03  1.170E+00  1.200E+01  2.400E-02  6.586E-02
   1   14    9     7     1    1.5000E+02  1.3417E+00   1.4866E+02  0.000E+00  0.000E+00  0.000E+00  1.03987E+03  2.288E+00  5.529E+01  5.593E-01  7.996E-01
   1   13    8     7     2    1.4866E+02  1.8795E+00   1.4678E+02  0.000E+00  0.000E+00  0.000E+00  1.03478E+03  2.279E+00  5.526E+01  6.148E-01  1.019E+00
   1   13    7     7     3    1.4678E+02  1.5682E+00   1.4521E+02  0.000E+00  0.000E+00  0.000E+00  1.02969E+03  2.270E+00  5.521E+01  5.584E-01  9.361E-01
   1   13    6     8     1    1.6848E+02  1.0171E+00   1.6746E+02  0.000E+00  0.000E+00  0.000E+00  1.02481E+03  2.939E+00  4.261E+01  4.343E-01  7.807E-01
   1   13    5     8     2    1.6746E+02  2.7145E-01   1.6719E+02  0.000E+00  0.000E+00  0.000E+00  1.01856E+03  2.935E+00  4.255E+01  4.336E-01  2.087E-01
   1   13    4     8     3    1.6719E+02 -2.1030E+00   1.6929E+02  0.000E+00  0.000E+00  0.000E+00  1.01232E+03  2.941E+00  4.264E+01  4.345E+00 -1.613E-01
   1   13    3     8     4    1.6929E+02 -3.5094E+00   1.7280E+02  0.000E+00  0.000E+00  0.000E+00  1.00608E+03  2.959E+00  4.291E+01  4.372E+00 -2.675E-01
   1   13    2     8     5    1.7280E+02 -2.5455E+00   1.7535E+02  0.000E+00  0.000E+00  0.000E+00  9.99854E+02  2.979E+00  4.319E+01  4.401E+00 -1.928E-01
   1   13    1     8     6    1.7535E+02 -1.9763E+00   1.7732E+02  0.000E+00  0.000E+00  0.000E+00  9.94868E+02  2.993E+00  4.340E+01  2.653E+00 -2.483E-01





UNSATURATED ZONE PACKAGE VOLUMETRIC BUDGET FOR  TIME STEP    30 STRESS PERIOD   28
  ------------------------------------------------------------------------------



     CUMULATIVE VOLUMES      L**3       RATES FOR THIS TIME STEP      L**3/T
     ------------------                 ------------------------

           IN:                                      IN:
           ---                                      ---
        INFILTRATION =  1110553522.5269          INFILTRATION =           4.4075

          OUT:                                     OUT:
          ----                                     ----
              UZF ET =  1004200749.2750                UZF ET =           0.7250
        UZF RECHARGE =      822897.6361          UZF RECHARGE =           0.0462

            IN - OUT =   105529875.6158              IN - OUT =           3.6363

          STORAGE:                                 STORAGE:
          --------                                 --------
      STORAGE CHANGE =   105531518.9114        STORAGE CHANGE =           3.6363

 PERCENT DISCREPANCY IS DIFFERENCE BETWEEN IN-OUT MINUS CHANGE IN STORAGE
 DIVIDED BY THE AVERAGE OF IN AND OUT TIMES 100

 PERCENT DISCREPANCY =          -0.00     PERCENT DISCREPANCY =           0.00






1
  VOLUMETRIC BUDGET FOR ENTIRE MODEL AT END OF TIME STEP   30, STRESS PERIOD  28
  ------------------------------------------------------------------------------

     CUMULATIVE VOLUMES      L**3       RATES FOR THIS TIME STEP      L**3/T
     ------------------                 ------------------------

           IN:                                      IN:
           ---                                      ---
               AG WELLS  =   797503936.0000                 AG WELLS  =           0.0000
      DIVERSION SEGMENTS =           0.0000        DIVERSION SEGMENTS =           0.0000
           GW IRRIGATION =           0.0000             GW IRRIGATION =           0.0000
           SW IRRIGATION =           0.0000             SW IRRIGATION =           0.0000
        SYSTEM LOSSES GW =           0.0000          SYSTEM LOSSES GW =           0.0000
        SYSTEM LOSSES SW =           0.0000          SYSTEM LOSSES SW =           0.0000

                TOTAL IN =   797503936.0000                  TOTAL IN =           0.0000

          OUT:                                     OUT:
          ----                                     ----
               AG WELLS  =           0.0000                 AG WELLS  =           0.0000
      DIVERSION SEGMENTS =           0.0000        DIVERSION SEGMENTS =           0.0000
           GW IRRIGATION =   797503936.0000             GW IRRIGATION =           0.0000
           SW IRRIGATION =           0.0000             SW IRRIGATION =           0.0000
        SYSTEM LOSSES GW =           0.0000          SYSTEM LOSSES GW =           0.0000
        SYSTEM LOSSES SW =           0.0000          SYSTEM LOSSES SW =           0.0000

               TOTAL OUT =   797503936.0000                 TOTAL OUT =           0.0000

                IN - OUT =           0.0000                  IN - OUT =           0.0000

     PERCENT DISCREPANCY =           0.00         PERCENT DISCREPANCY =           0.00



1
  VOLUMETRIC BUDGET FOR ENTIRE MODEL AT END OF TIME STEP   30, STRESS PERIOD  28
  ------------------------------------------------------------------------------

     CUMULATIVE VOLUMES      L**3       RATES FOR THIS TIME STEP      L**3/T
     ------------------                 ------------------------

           IN:                                      IN:
           ---                                      ---
             STORAGE     =  1131360128.0000               STORAGE     =           4.4384
       CONSTANT HEAD     =           0.0000         CONSTANT HEAD     =           0.0000
     HEAD DEP BOUNDS     =    20300262.0000       HEAD DEP BOUNDS     =           0.2862
      STREAM LEAKAGE     =   877204608.0000        STREAM LEAKAGE     =          11.8112
        UZF RECHARGE     =      822897.5000          UZF RECHARGE     =       4.6198E-02
               GW ET     =           0.0000                 GW ET     =           0.0000
     SURFACE LEAKAGE     =           0.0000       SURFACE LEAKAGE     =           0.0000
           AG WELLS      =           0.0000             AG WELLS      =           0.0000

                TOTAL IN =  2029687936.0000                  TOTAL IN =          16.5820

          OUT:                                     OUT:
          ----                                     ----
             STORAGE     =   456682624.0000               STORAGE     =           6.1591
       CONSTANT HEAD     =           0.0000         CONSTANT HEAD     =           0.0000
     HEAD DEP BOUNDS     =    20869520.0000       HEAD DEP BOUNDS     =           0.2893
      STREAM LEAKAGE     =   737318016.0000        STREAM LEAKAGE     =          10.1341
        UZF RECHARGE     =           0.0000          UZF RECHARGE     =           0.0000
               GW ET     =    17319432.0000                 GW ET     =           0.0000
     SURFACE LEAKAGE     =           0.0000       SURFACE LEAKAGE     =           0.0000
           AG WELLS      =   797503936.0000             AG WELLS      =           0.0000

               TOTAL OUT =  2029693440.0000                 TOTAL OUT =          16.5825

                IN - OUT =       -5504.0000                  IN - OUT =      -4.5395E-04

     PERCENT DISCREPANCY =          -0.00         PERCENT DISCREPANCY =          -0.00






         TIME SUMMARY AT END OF TIME STEP   30 IN STRESS PERIOD   28
                    SECONDS     MINUTES      HOURS       DAYS        YEARS
                    -----------------------------------------------------------
   TIME STEP LENGTH  87667.      1461.1      24.352      1.0147     2.77799E-03
 STRESS PERIOD TIME 2.63000E+06  43833.      730.56      30.440     8.33397E-02
         TOTAL TIME 7.10967E+07 1.18494E+06  19749.      822.88      2.2529    
1
1
                            STRESS PERIOD NO.   29, LENGTH =   2630000.    
                            -----------------------------------------------

                              NUMBER OF TIME STEPS =    30

                               MULTIPLIER FOR DELT =     1.000

                            INITIAL TIME STEP SIZE =   87666.66    

 REUSING NON-PARAMETER GHB CELLS FROM LAST STRESS PERIOD

      2 GHB CELLS

 REUSING STREAM SEGMENT DATA FROM LAST STRESS PERIOD



            AREAL INFILTRATION RATE
 READING ON UNIT   19 WITH FORMAT: (10F4.0)            

            1           2           3           4           5           6           7           8           9          10
 ........................................................................................................................
   1   1.2000E-09   0.000       0.000       0.000       0.000       0.000       0.000       0.000       0.000       0.000    
   2   2.1000E-09  2.0000E-09  8.0000E-10  8.5000E-09   0.000       0.000       0.000       0.000       0.000       0.000    
   3   5.0000E-10  1.1000E-09  8.8000E-09  5.5000E-09   0.000       0.000       0.000       0.000       0.000       0.000    
   4   8.5000E-09  1.1000E-09  1.1000E-09  1.1000E-09  2.0000E-09   0.000       0.000       0.000       0.000       0.000    
   5   8.5000E-09  1.1000E-09  1.1000E-09  1.1000E-09  1.1000E-09   0.000       0.000       0.000       0.000       0.000    
   6   8.5000E-09  5.2000E-09  2.1000E-09  1.1000E-09  1.5000E-09   0.000       0.000       0.000       0.000       0.000    
   7   8.5000E-09  5.2000E-09  2.1000E-09  1.2000E-09  2.0000E-09   0.000       0.000       0.000       0.000       0.000    
   8   5.0000E-10  5.2000E-09  2.1000E-09  1.2000E-09  5.0000E-09   0.000       0.000       0.000       0.000       0.000    
   9   5.0000E-10  5.2000E-09  2.1000E-09  1.2000E-09  5.0000E-09   0.000       0.000       0.000       0.000       0.000    
  10   5.0000E-10  5.2000E-09  2.1000E-09  1.2000E-09  5.8000E-09   0.000       0.000       0.000       0.000       0.000    
  11   1.0000E-10  1.1000E-09  1.1000E-09  1.2000E-09  5.0000E-09   0.000       0.000       0.000       0.000       0.000    
  12   1.1000E-09  1.1000E-09  1.1000E-09  1.1000E-09  2.0000E-09   0.000       0.000       0.000       0.000       0.000    
  13   1.1000E-09  2.2000E-09  2.2000E-09  2.1000E-09  1.0000E-09   0.000       0.000       0.000       0.000       0.000    
  14   2.0000E-10  5.5000E-09  5.5000E-09  5.2000E-09  1.0000E-09   0.000       0.000       0.000       0.000       0.000    
  15    0.000      8.8000E-09  8.8000E-09   0.000       0.000       0.000       0.000       0.000       0.000       0.000    

                  ET RATE =  2.500000E-08

 USING ET EXTINCTION DEPTH FROM PREVIOUS STRESS PERIOD. CURRENT PERIOD IS:      29

 USING EXTINCTION WATER CONTENT FROM PREVIOUS STRESS PERIOD. CURRENT PERIOD IS:      29

 USING AIR ENTRY PRESSURE FROM PREVIOUS STRESS PERIOD. CURRENT PERIOD IS:      29

 USING ROOT PRESSURE HEAD FROM PREVIOUS STRESS PERIOD. CURRENT PERIOD IS:      29

 USING ROOT ACTIVITY FROM PREVIOUS STRESS PERIOD. CURRENT PERIOD IS:      29

 PROCESSING AG STRESS PERIOD DATA

 READING AG STRESS PERIOD DATA

 READING IRRIGATION WELL

 END PROCESSING AG STRESS PERIOD DATA OPTIONS
 
 SOLVING FOR HEAD 
                                                   Max.-Head-Change                         Max.-Flux-Residual
  Residual-Control   Outer-Iter.   Inner-Iter.     Column Row Layer    Maximum-Head-Change  Column Row Layer    Maximum-Flux-Residual          L2-NORM 
          0                 1           2             4    7     1       0.1043189433E-01       4    7    1         0.5460056357E+00      0.1514545446E+01
          0                 2           2             4    7     1      -0.1014740722E-02       4    7    1        -0.5460068888E-01      0.1514551608E+00
          0                 3           1             4    7     1       0.6910006517E-04       4    7    1         0.3822048679E-02      0.1060316856E-01

    ------------------------------------------------
       NWT REQUIRED            3 OUTER ITERATIONS 
       AND A TOTAL OF          5 INNER ITERATIONS.
    ------------------------------------------------

 NO OUTPUT CONTROL FOR STRESS PERIOD   29   TIME STEP    1
 
 SOLVING FOR HEAD 
                                                   Max.-Head-Change                         Max.-Flux-Residual
  Residual-Control   Outer-Iter.   Inner-Iter.     Column Row Layer    Maximum-Head-Change  Column Row Layer    Maximum-Flux-Residual          L2-NORM 
          0                 1           2             4    7     1       0.1031501400E-01       4    7    1         0.5398898658E+00      0.1502918375E+01
          0                 2           2             4    7     1      -0.1003884257E-02       4    7    1        -0.5398910901E-01      0.1509142056E+00
          0                 3           1             4    7     1       0.6836078106E-04       4    7    1         0.3779238149E-02      0.1056488022E-01

    ------------------------------------------------
       NWT REQUIRED            3 OUTER ITERATIONS 
       AND A TOTAL OF          5 INNER ITERATIONS.
    ------------------------------------------------

 NO OUTPUT CONTROL FOR STRESS PERIOD   29   TIME STEP    2
 
 SOLVING FOR HEAD 
                                                   Max.-Head-Change                         Max.-Flux-Residual
  Residual-Control   Outer-Iter.   Inner-Iter.     Column Row Layer    Maximum-Head-Change  Column Row Layer    Maximum-Flux-Residual          L2-NORM 
          0                 1           2             4    7     1       0.1002375150E-01       4    7    1         0.5325566833E+00      0.1430489096E+01
          0                 2           2             4    7     1      -0.9750380412E-03       4    7    1        -0.5325569330E-01      0.1430483860E+00
          0                 3           1             4    7     1       0.6639647148E-04       4    7    1         0.3727899907E-02      0.1001396418E-01

    ------------------------------------------------
       NWT REQUIRED            3 OUTER ITERATIONS 
       AND A TOTAL OF          5 INNER ITERATIONS.
    ------------------------------------------------

 NO OUTPUT CONTROL FOR STRESS PERIOD   29   TIME STEP    3
 
 SOLVING FOR HEAD 
                                                   Max.-Head-Change                         Max.-Flux-Residual
  Residual-Control   Outer-Iter.   Inner-Iter.     Column Row Layer    Maximum-Head-Change  Column Row Layer    Maximum-Flux-Residual          L2-NORM 
          0                 1           2             3    7     1       0.8583502486E-02       5    7    1         0.4508858051E+00      0.1193985383E+01
          0                 2           2             3    7     1      -0.8349412732E-03       5    7    1        -0.4508871388E-01      0.1193976483E+00
          0                 3           1             3    7     1       0.5685647602E-04       5    7    1         0.3156210085E-02      0.8358233947E-02

    ------------------------------------------------
       NWT REQUIRED            3 OUTER ITERATIONS 
       AND A TOTAL OF          5 INNER ITERATIONS.
    ------------------------------------------------

 NO OUTPUT CONTROL FOR STRESS PERIOD   29   TIME STEP    4
 
 SOLVING FOR HEAD 
                                                   Max.-Head-Change                         Max.-Flux-Residual
  Residual-Control   Outer-Iter.   Inner-Iter.     Column Row Layer    Maximum-Head-Change  Column Row Layer    Maximum-Flux-Residual          L2-NORM 
          0                 1           2             3    7     1       0.8442400851E-02       5    7    1         0.4296148787E+00      0.1159876761E+01
          0                 2           2             3    7     1      -0.8212159476E-03       5    7    1        -0.4296162974E-01      0.1159865953E+00
          0                 3           1             3    7     1       0.5592181729E-04       5    7    1         0.3007314031E-02      0.8119282495E-02

    ------------------------------------------------
       NWT REQUIRED            3 OUTER ITERATIONS 
       AND A TOTAL OF          5 INNER ITERATIONS.
    ------------------------------------------------

 NO OUTPUT CONTROL FOR STRESS PERIOD   29   TIME STEP    5
 
 SOLVING FOR HEAD 
                                                   Max.-Head-Change                         Max.-Flux-Residual
  Residual-Control   Outer-Iter.   Inner-Iter.     Column Row Layer    Maximum-Head-Change  Column Row Layer    Maximum-Flux-Residual          L2-NORM 
          0                 1           2             3    7     1       0.8303543982E-02       5    8    1         0.3759405186E+00      0.1071046330E+01
          0                 2           2             3    7     1      -0.8077089550E-03       5    8    1        -0.3759417708E-01      0.1071033731E+00
          0                 3           1             3    7     1       0.5500203632E-04       5    8    1         0.2631592338E-02      0.7497342802E-02

    ------------------------------------------------
       NWT REQUIRED            3 OUTER ITERATIONS 
       AND A TOTAL OF          5 INNER ITERATIONS.
    ------------------------------------------------

 NO OUTPUT CONTROL FOR STRESS PERIOD   29   TIME STEP    6
 
 SOLVING FOR HEAD 
                                                   Max.-Head-Change                         Max.-Flux-Residual
  Residual-Control   Outer-Iter.   Inner-Iter.     Column Row Layer    Maximum-Head-Change  Column Row Layer    Maximum-Flux-Residual          L2-NORM 
          0                 1           2             3    7     1       0.8166847300E-02       5    8    1         0.3514901806E+00      0.1040082828E+01
          0                 2           2             3    7     1      -0.7944122657E-03       5    8    1        -0.3725887130E-01      0.1047387357E+00
          0                 3           1             3    7     1       0.5409658486E-04       5    8    1         0.2608120749E-02      0.7331680079E-02

    ------------------------------------------------
       NWT REQUIRED            3 OUTER ITERATIONS 
       AND A TOTAL OF          5 INNER ITERATIONS.
    ------------------------------------------------

 NO OUTPUT CONTROL FOR STRESS PERIOD   29   TIME STEP    7
 
 SOLVING FOR HEAD 
                                                   Max.-Head-Change                         Max.-Flux-Residual
  Residual-Control   Outer-Iter.   Inner-Iter.     Column Row Layer    Maximum-Head-Change  Column Row Layer    Maximum-Flux-Residual          L2-NORM 
          0                 1           2             3    7     1       0.8032797381E-02       5    8    1         0.3379965754E+00      0.1020742148E+01
          0                 2           2             3    7     1      -0.7813726592E-03       5    8    1        -0.3379976615E-01      0.1020805930E+00
          0                 3           1             3    7     1       0.5320863656E-04       5    8    1         0.2365983622E-02      0.7147510460E-02

    ------------------------------------------------
       NWT REQUIRED            3 OUTER ITERATIONS 
       AND A TOTAL OF          5 INNER ITERATIONS.
    ------------------------------------------------

 NO OUTPUT CONTROL FOR STRESS PERIOD   29   TIME STEP    8
 
 SOLVING FOR HEAD 
                                                   Max.-Head-Change                         Max.-Flux-Residual
  Residual-Control   Outer-Iter.   Inner-Iter.     Column Row Layer    Maximum-Head-Change  Column Row Layer    Maximum-Flux-Residual          L2-NORM 
          0                 1           2             3    7     1       0.7901097426E-02       6    7    1         0.2510015724E+00      0.9634995373E+00
          0                 2           2             3    7     1      -0.7685618279E-03       6    7    1        -0.2510024358E-01      0.9635564689E-01
          0                 3           1             3    7     1       0.5233626444E-04       6    7    1         0.1757016990E-02      0.6746563971E-02

    ------------------------------------------------
       NWT REQUIRED            3 OUTER ITERATIONS 
       AND A TOTAL OF          5 INNER ITERATIONS.
    ------------------------------------------------

 NO OUTPUT CONTROL FOR STRESS PERIOD   29   TIME STEP    9
 
 SOLVING FOR HEAD 
                                                   Max.-Head-Change                         Max.-Flux-Residual
  Residual-Control   Outer-Iter.   Inner-Iter.     Column Row Layer    Maximum-Head-Change  Column Row Layer    Maximum-Flux-Residual          L2-NORM 
          0                 1           2             3    7     1       0.7771469220E-02       6    7    1         0.2428718786E+00      0.9358285433E+00
          0                 2           2             3    7     1      -0.7559525220E-03       6    7    1        -0.2428726925E-01      0.9358790547E-01
          0                 3           1             3    7     1       0.5147761571E-04       6    7    1         0.1700108807E-02      0.6552528495E-02

    ------------------------------------------------
       NWT REQUIRED            3 OUTER ITERATIONS 
       AND A TOTAL OF          5 INNER ITERATIONS.
    ------------------------------------------------

 NO OUTPUT CONTROL FOR STRESS PERIOD   29   TIME STEP   10
 
 SOLVING FOR HEAD 
                                                   Max.-Head-Change                         Max.-Flux-Residual
  Residual-Control   Outer-Iter.   Inner-Iter.     Column Row Layer    Maximum-Head-Change  Column Row Layer    Maximum-Flux-Residual          L2-NORM 
          0                 1           2             3    7     1       0.7644373879E-02       4    9    1         0.2359060585E+00      0.9206240437E+00
          0                 2           2             3    7     1      -0.7435895955E-03       4    9    1        -0.2359063452E-01      0.9206675368E-01
          0                 3           1             3    7     1       0.5063574427E-04       4    9    1         0.1651344857E-02      0.6445836478E-02

    ------------------------------------------------
       NWT REQUIRED            3 OUTER ITERATIONS 
       AND A TOTAL OF          5 INNER ITERATIONS.
    ------------------------------------------------

 NO OUTPUT CONTROL FOR STRESS PERIOD   29   TIME STEP   11
 
 SOLVING FOR HEAD 
                                                   Max.-Head-Change                         Max.-Flux-Residual
  Residual-Control   Outer-Iter.   Inner-Iter.     Column Row Layer    Maximum-Head-Change  Column Row Layer    Maximum-Flux-Residual          L2-NORM 
          0                 1           2             3    7     1       0.7519530206E-02       4    9    1         0.2299289610E+00      0.9048214885E+00
          0                 2           2             3    7     1      -0.7314456957E-03       4    9    1        -0.2299292372E-01      0.9048596580E-01
          0                 3           1             3    7     1       0.4980878762E-04       4    9    1         0.1609505097E-02      0.6334975312E-02

    ------------------------------------------------
       NWT REQUIRED            3 OUTER ITERATIONS 
       AND A TOTAL OF          5 INNER ITERATIONS.
    ------------------------------------------------

 NO OUTPUT CONTROL FOR STRESS PERIOD   29   TIME STEP   12
 
 SOLVING FOR HEAD 
                                                   Max.-Head-Change                         Max.-Flux-Residual
  Residual-Control   Outer-Iter.   Inner-Iter.     Column Row Layer    Maximum-Head-Change  Column Row Layer    Maximum-Flux-Residual          L2-NORM 
          0                 1           2             3    7     1       0.7396907738E-02       4    9    1         0.2241418852E+00      0.8890923262E+00
          0                 2           2             3    7     1      -0.7195178590E-03       4    9    1        -0.2241421508E-01      0.8890877623E-01
          0                 3           1             3    7     1       0.4899654436E-04       4    9    1         0.1568995493E-02      0.6223747922E-02

    ------------------------------------------------
       NWT REQUIRED            3 OUTER ITERATIONS 
       AND A TOTAL OF          5 INNER ITERATIONS.
    ------------------------------------------------

 NO OUTPUT CONTROL FOR STRESS PERIOD   29   TIME STEP   13
 
 SOLVING FOR HEAD 
                                                   Max.-Head-Change                         Max.-Flux-Residual
  Residual-Control   Outer-Iter.   Inner-Iter.     Column Row Layer    Maximum-Head-Change  Column Row Layer    Maximum-Flux-Residual          L2-NORM 
          0                 1           2             3    7     1       0.7276474882E-02       4    9    1         0.2185457530E+00      0.8739129618E+00
          0                 2           2             3    7     1      -0.7078030130E-03       4    9    1        -0.2185460084E-01      0.8738927073E-01
          0                 3           1             3    7     1       0.4819880503E-04       4    9    1         0.1529822476E-02      0.6118079467E-02

    ------------------------------------------------
       NWT REQUIRED            3 OUTER ITERATIONS 
       AND A TOTAL OF          5 INNER ITERATIONS.
    ------------------------------------------------

 NO OUTPUT CONTROL FOR STRESS PERIOD   29   TIME STEP   14
 
 SOLVING FOR HEAD 
                                                   Max.-Head-Change                         Max.-Flux-Residual
  Residual-Control   Outer-Iter.   Inner-Iter.     Column Row Layer    Maximum-Head-Change  Column Row Layer    Maximum-Flux-Residual          L2-NORM 
          0                 1           2             3    7     1       0.7158444612E-02       4    9    1         0.2131286164E+00      0.8590040583E+00
          0                 2           2             3    7     1      -0.6963218739E-03       4    9    1        -0.2131288617E-01      0.8589874753E-01
          0                 3           1             3    7     1       0.4741698055E-04       4    9    1         0.1491902442E-02      0.6013572254E-02

    ------------------------------------------------
       NWT REQUIRED            3 OUTER ITERATIONS 
       AND A TOTAL OF          5 INNER ITERATIONS.
    ------------------------------------------------

 NO OUTPUT CONTROL FOR STRESS PERIOD   29   TIME STEP   15
 
 SOLVING FOR HEAD 
                                                   Max.-Head-Change                         Max.-Flux-Residual
  Residual-Control   Outer-Iter.   Inner-Iter.     Column Row Layer    Maximum-Head-Change  Column Row Layer    Maximum-Flux-Residual          L2-NORM 
          0                 1           2             3    7     1       0.7042293807E-02       4    9    1         0.2078860775E+00      0.8446664482E+00
          0                 2           2             3    7     1      -0.6850235558E-03       4    9    1        -0.2078863134E-01      0.8446536334E-01
          0                 3           1             3    7     1       0.4664760580E-04       4    9    1         0.1455204600E-02      0.5913160988E-02

    ------------------------------------------------
       NWT REQUIRED            3 OUTER ITERATIONS 
       AND A TOTAL OF          5 INNER ITERATIONS.
    ------------------------------------------------

 NO OUTPUT CONTROL FOR STRESS PERIOD   29   TIME STEP   16
 
 SOLVING FOR HEAD 
                                                   Max.-Head-Change                         Max.-Flux-Residual
  Residual-Control   Outer-Iter.   Inner-Iter.     Column Row Layer    Maximum-Head-Change  Column Row Layer    Maximum-Flux-Residual          L2-NORM 
          0                 1           2             3    7     1       0.6928483834E-02       4    9    1         0.2028204997E+00      0.8309279660E+00
          0                 2           2             3    7     1      -0.6739529370E-03       4    9    1        -0.2028207263E-01      0.8309175078E-01
          0                 3           1             3    7     1       0.4589373575E-04       4    9    1         0.1419745488E-02      0.5816881291E-02

    ------------------------------------------------
       NWT REQUIRED            3 OUTER ITERATIONS 
       AND A TOTAL OF          5 INNER ITERATIONS.
    ------------------------------------------------

 NO OUTPUT CONTROL FOR STRESS PERIOD   29   TIME STEP   17
 
 SOLVING FOR HEAD 
                                                   Max.-Head-Change                         Max.-Flux-Residual
  Residual-Control   Outer-Iter.   Inner-Iter.     Column Row Layer    Maximum-Head-Change  Column Row Layer    Maximum-Flux-Residual          L2-NORM 
          0                 1           2             3    7     1       0.6816976394E-02       4    9    1         0.1979271652E+00      0.8177969494E+00
          0                 2           2             3    7     1      -0.6631062933E-03       4    9    1        -0.1979273828E-01      0.8177880738E-01
          0                 3           1             3    7     1       0.4515511823E-04       4    9    1         0.1385492063E-02      0.5724820047E-02

    ------------------------------------------------
       NWT REQUIRED            3 OUTER ITERATIONS 
       AND A TOTAL OF          5 INNER ITERATIONS.
    ------------------------------------------------

 NO OUTPUT CONTROL FOR STRESS PERIOD   29   TIME STEP   18
 
 SOLVING FOR HEAD 
                                                   Max.-Head-Change                         Max.-Flux-Residual
  Residual-Control   Outer-Iter.   Inner-Iter.     Column Row Layer    Maximum-Head-Change  Column Row Layer    Maximum-Flux-Residual          L2-NORM 
          0                 1           2             3    7     1       0.6707249226E-02       4    9    1         0.1932016988E+00      0.8052424020E+00
          0                 2           2             3    7     1      -0.6524328213E-03       4    9    1        -0.1932019078E-01      0.8052342450E-01
          0                 3           1             3    7     1       0.4442829320E-04       4    9    1         0.1352413756E-02      0.5636851761E-02

    ------------------------------------------------
       NWT REQUIRED            3 OUTER ITERATIONS 
       AND A TOTAL OF          5 INNER ITERATIONS.
    ------------------------------------------------

 NO OUTPUT CONTROL FOR STRESS PERIOD   29   TIME STEP   19
 
 SOLVING FOR HEAD 
                                                   Max.-Head-Change                         Max.-Flux-Residual
  Residual-Control   Outer-Iter.   Inner-Iter.     Column Row Layer    Maximum-Head-Change  Column Row Layer    Maximum-Flux-Residual          L2-NORM 
          0                 1           2             3    7     1       0.6599764880E-02       4    9    1         0.1886331954E+00      0.7932623632E+00
          0                 2           2             3    7     1      -0.6419775158E-03       4    9    1        -0.1886333962E-01      0.7932557790E-01
          0                 3           1             3    7     1       0.4371632497E-04       4    9    1         0.1320434152E-02      0.5552994611E-02

    ------------------------------------------------
       NWT REQUIRED            3 OUTER ITERATIONS 
       AND A TOTAL OF          5 INNER ITERATIONS.
    ------------------------------------------------

 NO OUTPUT CONTROL FOR STRESS PERIOD   29   TIME STEP   20
 
 SOLVING FOR HEAD 
                                                   Max.-Head-Change                         Max.-Flux-Residual
  Residual-Control   Outer-Iter.   Inner-Iter.     Column Row Layer    Maximum-Head-Change  Column Row Layer    Maximum-Flux-Residual          L2-NORM 
          0                 1           2             3    7     1       0.6494239782E-02       4    9    1         0.1842238695E+00      0.7818212288E+00
          0                 2           2             3    7     1      -0.6317127920E-03       4    9    1        -0.1842240625E-01      0.7818149459E-01
          0                 3           1             3    7     1       0.4301733389E-04       4    9    1         0.1289568813E-02      0.5472843139E-02

    ------------------------------------------------
       NWT REQUIRED            3 OUTER ITERATIONS 
       AND A TOTAL OF          5 INNER ITERATIONS.
    ------------------------------------------------

 NO OUTPUT CONTROL FOR STRESS PERIOD   29   TIME STEP   21
 
 SOLVING FOR HEAD 
                                                   Max.-Head-Change                         Max.-Flux-Residual
  Residual-Control   Outer-Iter.   Inner-Iter.     Column Row Layer    Maximum-Head-Change  Column Row Layer    Maximum-Flux-Residual          L2-NORM 
          0                 1           2             3    7     1       0.6390885015E-02       4    9    1         0.1799626276E+00      0.7708984507E+00
          0                 2           2             3    7     1      -0.6216591826E-03       4    9    1        -0.1799628130E-01      0.7708922222E-01
          0                 3           1             3    7     1       0.4233271965E-04       4    9    1         0.1259740056E-02      0.5396322307E-02

    ------------------------------------------------
       NWT REQUIRED            3 OUTER ITERATIONS 
       AND A TOTAL OF          5 INNER ITERATIONS.
    ------------------------------------------------

 NO OUTPUT CONTROL FOR STRESS PERIOD   29   TIME STEP   22
 
 SOLVING FOR HEAD 
                                                   Max.-Head-Change                         Max.-Flux-Residual
  Residual-Control   Outer-Iter.   Inner-Iter.     Column Row Layer    Maximum-Head-Change  Column Row Layer    Maximum-Flux-Residual          L2-NORM 
          0                 1           2             3    7     1       0.6289419387E-02       4    9    1         0.1758580516E+00      0.7604727013E+00
          0                 2           2             3    7     1      -0.6117893354E-03       4    9    1        -0.1758582298E-01      0.7604671940E-01
          0                 3           1             3    7     1       0.4166061868E-04       4    9    1         0.1231007969E-02      0.5323287215E-02

    ------------------------------------------------
       NWT REQUIRED            3 OUTER ITERATIONS 
       AND A TOTAL OF          5 INNER ITERATIONS.
    ------------------------------------------------

 NO OUTPUT CONTROL FOR STRESS PERIOD   29   TIME STEP   23
 
 SOLVING FOR HEAD 
                                                   Max.-Head-Change                         Max.-Flux-Residual
  Residual-Control   Outer-Iter.   Inner-Iter.     Column Row Layer    Maximum-Head-Change  Column Row Layer    Maximum-Flux-Residual          L2-NORM 
          0                 1           2             3    7     1       0.6190053179E-02       4    9    1         0.1718924511E+00      0.7505059091E+00
          0                 2           2             3    7     1      -0.6021237043E-03       4    9    1        -0.1718926224E-01      0.7505000890E-01
          0                 3           1             3    7     1       0.4100242416E-04       4    9    1         0.1203248710E-02      0.5253488790E-02

    ------------------------------------------------
       NWT REQUIRED            3 OUTER ITERATIONS 
       AND A TOTAL OF          5 INNER ITERATIONS.
    ------------------------------------------------

 NO OUTPUT CONTROL FOR STRESS PERIOD   29   TIME STEP   24
 
 SOLVING FOR HEAD 
                                                   Max.-Head-Change                         Max.-Flux-Residual
  Residual-Control   Outer-Iter.   Inner-Iter.     Column Row Layer    Maximum-Head-Change  Column Row Layer    Maximum-Flux-Residual          L2-NORM 
          0                 1           2             3    7     1       0.6092504466E-02       4    9    1         0.1680678044E+00      0.7410257405E+00
          0                 2           2             3    7     1      -0.5926348666E-03       4    9    1        -0.1680679692E-01      0.7409797420E-01
          0                 3           1             3    7     1       0.4035626838E-04       4    9    1         0.1176476133E-02      0.5186638948E-02

    ------------------------------------------------
       NWT REQUIRED            3 OUTER ITERATIONS 
       AND A TOTAL OF          5 INNER ITERATIONS.
    ------------------------------------------------

 NO OUTPUT CONTROL FOR STRESS PERIOD   29   TIME STEP   25
 
 SOLVING FOR HEAD 
                                                   Max.-Head-Change                         Max.-Flux-Residual
  Residual-Control   Outer-Iter.   Inner-Iter.     Column Row Layer    Maximum-Head-Change  Column Row Layer    Maximum-Flux-Residual          L2-NORM 
          0                 1           2             3    7     1       0.5996983384E-02       4    9    1         0.1643795972E+00      0.7319648895E+00
          0                 2           2             3    7     1      -0.5834667133E-03       4    9    1        -0.1643797557E-01      0.7318656520E-01
          0                 3           1             3    7     1       0.3985204319E-04       4    9    1         0.1150658639E-02      0.5124016575E-02

    ------------------------------------------------
       NWT REQUIRED            3 OUTER ITERATIONS 
       AND A TOTAL OF          5 INNER ITERATIONS.
    ------------------------------------------------

 NO OUTPUT CONTROL FOR STRESS PERIOD   29   TIME STEP   26
 
 SOLVING FOR HEAD 
                                                   Max.-Head-Change                         Max.-Flux-Residual
  Residual-Control   Outer-Iter.   Inner-Iter.     Column Row Layer    Maximum-Head-Change  Column Row Layer    Maximum-Flux-Residual          L2-NORM 
          0                 1           2             3    7     1       0.5903205472E-02       4    9    1         0.1608230469E+00      0.7232346949E+00
          0                 2           2             3    7     1      -0.5674210238E-03       4    9    1        -0.1608231996E-01      0.7226845307E-01
          0                 3           1             3    7     1       0.3863928935E-04       4    9    1         0.1125762729E-02      0.5058593409E-02

    ------------------------------------------------
       NWT REQUIRED            3 OUTER ITERATIONS 
       AND A TOTAL OF          5 INNER ITERATIONS.
    ------------------------------------------------

 NO OUTPUT CONTROL FOR STRESS PERIOD   29   TIME STEP   27
 
 SOLVING FOR HEAD 
                                                   Max.-Head-Change                         Max.-Flux-Residual
  Residual-Control   Outer-Iter.   Inner-Iter.     Column Row Layer    Maximum-Head-Change  Column Row Layer    Maximum-Flux-Residual          L2-NORM 
          0                 1           2             3    7     1       0.5825143819E-02       4    9    1         0.1574002184E+00      0.7149202083E+00
          0                 2           2             3    7     1      -0.5666287029E-03       4    9    1        -0.1574003652E-01      0.7148741048E-01
          0                 3           1             3    7     1       0.3858533471E-04       4    9    1         0.1101802909E-02      0.5003877105E-02

    ------------------------------------------------
       NWT REQUIRED            3 OUTER ITERATIONS 
       AND A TOTAL OF          5 INNER ITERATIONS.
    ------------------------------------------------

 NO OUTPUT CONTROL FOR STRESS PERIOD   29   TIME STEP   28
 
 SOLVING FOR HEAD 
                                                   Max.-Head-Change                         Max.-Flux-Residual
  Residual-Control   Outer-Iter.   Inner-Iter.     Column Row Layer    Maximum-Head-Change  Column Row Layer    Maximum-Flux-Residual          L2-NORM 
          0                 1           2             3    7     1       0.5741666724E-02       9    5    1        -0.1542407107E+00      0.7069552984E+00
          0                 2           2             3    7     1      -0.5585086244E-03       9    5    1         0.1542405874E-01      0.7069143433E-01
          0                 3           1             3    7     1       0.3803238737E-04       9    5    1        -0.1079684692E-02      0.4948200274E-02

    ------------------------------------------------
       NWT REQUIRED            3 OUTER ITERATIONS 
       AND A TOTAL OF          5 INNER ITERATIONS.
    ------------------------------------------------

 NO OUTPUT CONTROL FOR STRESS PERIOD   29   TIME STEP   29
 
 SOLVING FOR HEAD 
                                                   Max.-Head-Change                         Max.-Flux-Residual
  Residual-Control   Outer-Iter.   Inner-Iter.     Column Row Layer    Maximum-Head-Change  Column Row Layer    Maximum-Flux-Residual          L2-NORM 
          0                 1           2             3    7     1       0.5659739716E-02       9    5    1        -0.1537838990E+00      0.6993122557E+00
          0                 2           2             3    7     1      -0.5505393273E-03       9    5    1         0.1537837760E-01      0.6992749488E-01
          0                 3           1             3    7     1       0.3748970727E-04       9    5    1        -0.1076487007E-02      0.4894704360E-02

    ------------------------------------------------
       NWT REQUIRED            3 OUTER ITERATIONS 
       AND A TOTAL OF          5 INNER ITERATIONS.
    ------------------------------------------------

 NO OUTPUT CONTROL FOR STRESS PERIOD   29   TIME STEP   30



 STREAM LISTING     PERIOD     29   STEP       30

 LAYER ROW COL. STREAM  RCH.  FLOW INTO     FLOW TO   FLOW OUT OF   OVRLND.     DIRECT     STREAM       STREAM     STREAM     STREAM   STREAMBED  STREAMBED
                SEG.NO.  NO.  STRM. RCH.    AQUIFER    STRM. RCH.    RUNOFF     PRECIP       ET          HEAD       DEPTH      WIDTH   CONDCTNC.   GRADIENT

   1    1    1     1     1    1.9000E+01  2.1427E-01   1.8786E+01  0.000E+00  0.000E+00  0.000E+00  1.09413E+03  1.082E+00  1.166E+01  5.249E-02  1.361E+00
   1    2    2     1     2    1.8786E+01  3.3054E-01   1.8455E+01  0.000E+00  0.000E+00  0.000E+00  1.08914E+03  1.077E+00  1.158E+01  8.107E-02  1.359E+00
   1    3    3     1     3    1.8455E+01  2.8064E-01   1.8175E+01  0.000E+00  0.000E+00  0.000E+00  1.08349E+03  1.072E+00  1.149E+01  6.892E-02  1.357E+00
   1    3    4     1     4    1.8175E+01  2.5740E-01   1.7917E+01  0.000E+00  0.000E+00  0.000E+00  1.07848E+03  1.068E+00  1.140E+01  6.328E-02  1.356E+00
   1    4    5     2     1    1.5917E+01  3.0542E-01   1.5612E+01  0.000E+00  0.000E+00  0.000E+00  1.07285E+03  9.157E-01  1.200E+01  7.800E-02  1.305E+00
   1    5    6     2     2    1.5612E+01  2.3438E-01   1.5377E+01  0.000E+00  0.000E+00  0.000E+00  1.06742E+03  9.063E-01  1.200E+01  6.000E-02  1.302E+00
   1    6    6     2     3    1.5377E+01  2.3388E-01   1.5143E+01  0.000E+00  0.000E+00  0.000E+00  1.06269E+03  8.980E-01  1.200E+01  6.000E-02  1.299E+00
   1    7    6     2     4    1.5143E+01  2.3338E-01   1.4910E+01  0.000E+00  0.000E+00  0.000E+00  1.05797E+03  8.897E-01  1.200E+01  6.000E-02  1.297E+00
   1    8    6     2     5    1.4910E+01  2.3289E-01   1.4677E+01  0.000E+00  0.000E+00  0.000E+00  1.05324E+03  8.814E-01  1.200E+01  6.000E-02  1.294E+00
   1    3    5     3     1    2.0000E+00  2.8252E-01   1.7175E+00  0.000E+00  0.000E+00  0.000E+00  1.07555E+03  1.909E+00  9.636E+00  7.227E-02  1.955E+00
   1    3    6     3     2    1.7175E+00  2.4905E-01   1.4684E+00  0.000E+00  0.000E+00  0.000E+00  1.07264E+03  1.727E+00  8.909E+00  6.682E-02  1.864E+00
   1    3    7     3     3    1.4684E+00  1.9718E-01   1.2712E+00  0.000E+00  0.000E+00  0.000E+00  1.06987E+03  1.555E+00  8.218E+00  5.547E-02  1.777E+00
   1    4    8     3     4    1.2712E+00  2.2567E-01   1.0456E+00  0.000E+00  0.000E+00  0.000E+00  1.06682E+03  1.364E+00  7.455E+00  6.709E-02  1.682E+00
   1    5    8     3     5    1.0456E+00  1.5790E-01   8.8768E-01  0.000E+00  0.000E+00  0.000E+00  1.06362E+03  1.164E+00  6.655E+00  4.991E-02  1.582E+00
   1    6    8     3     6    8.8768E-01  5.5980E-02   8.3170E-01  0.000E+00  0.000E+00  0.000E+00  1.06158E+03  1.036E+00  6.145E+00  1.844E-02  1.518E+00
   1    5   10     4     1    1.0000E+01  9.0919E-02   9.9091E+00  0.000E+00  0.000E+00  0.000E+00  1.07836E+03  6.368E-01  1.000E+01  2.500E-02  1.212E+00
   1    5    9     4     2    9.9091E+00  1.8158E-01   9.7275E+00  0.000E+00  0.000E+00  0.000E+00  1.07154E+03  6.315E-01  1.000E+01  5.000E-02  1.211E+00
   1    6    8     4     3    9.7275E+00  1.2689E-01   9.6006E+00  0.000E+00  0.000E+00  0.000E+00  1.06381E+03  6.256E-01  1.000E+01  3.500E-02  1.209E+00
   1    6    8     5     1    1.0432E+01  2.2686E-01   1.0205E+01  0.000E+00  0.000E+00  0.000E+00  1.05868E+03  6.790E-01  1.542E+01  6.166E-02  1.226E+00
   1    7    7     5     2    1.0205E+01  2.7894E-01   9.9265E+00  0.000E+00  0.000E+00  0.000E+00  1.05417E+03  6.732E-01  1.519E+01  7.594E-02  1.224E+00
   1    8    7     5     3    9.9265E+00  1.9221E-01   9.7343E+00  0.000E+00  0.000E+00  0.000E+00  1.04992E+03  6.676E-01  1.497E+01  5.241E-02  1.223E+00
   1    8    6     5     4    9.7343E+00  1.3577E-01   9.5985E+00  0.000E+00  0.000E+00  0.000E+00  1.04691E+03  6.637E-01  1.482E+01  3.706E-02  1.221E+00
   1    9    6     6     1    2.4276E+01  2.5176E-01   2.4024E+01  0.000E+00  0.000E+00  0.000E+00  1.04392E+03  1.196E+00  1.200E+01  6.000E-02  1.399E+00
   1   10    7     6     2    2.4024E+01  2.5131E-01   2.3773E+01  0.000E+00  0.000E+00  0.000E+00  1.03937E+03  1.188E+00  1.200E+01  6.000E-02  1.396E+00
   1   11    7     6     3    2.3773E+01  2.5086E-01   2.3522E+01  0.000E+00  0.000E+00  0.000E+00  1.03482E+03  1.181E+00  1.200E+01  6.000E-02  1.394E+00
   1   12    7     6     4    2.3522E+01  2.5041E-01   2.3271E+01  0.000E+00  0.000E+00  0.000E+00  1.03026E+03  1.173E+00  1.200E+01  6.000E-02  1.391E+00
   1   13    7     6     5    2.3271E+01  5.3028E-03   2.3266E+01  0.000E+00  0.000E+00  0.000E+00  1.02708E+03  1.170E+00  1.200E+01  2.400E-02  7.365E-02
   1   14    9     7     1    1.5000E+02  1.3434E+00   1.4866E+02  0.000E+00  0.000E+00  0.000E+00  1.03987E+03  2.288E+00  5.529E+01  5.593E-01  8.007E-01
   1   13    8     7     2    1.4866E+02  1.8872E+00   1.4677E+02  0.000E+00  0.000E+00  0.000E+00  1.03478E+03  2.279E+00  5.526E+01  6.148E-01  1.023E+00
   1   13    7     7     3    1.4677E+02  1.5811E+00   1.4519E+02  0.000E+00  0.000E+00  0.000E+00  1.02969E+03  2.270E+00  5.521E+01  5.584E-01  9.438E-01
   1   13    6     8     1    1.6845E+02  1.0281E+00   1.6743E+02  0.000E+00  0.000E+00  0.000E+00  1.02481E+03  2.939E+00  4.261E+01  4.342E-01  7.892E-01
   1   13    5     8     2    1.6743E+02  2.7975E-01   1.6715E+02  0.000E+00  0.000E+00  0.000E+00  1.01856E+03  2.934E+00  4.255E+01  4.336E-01  2.151E-01
   1   13    4     8     3    1.6715E+02 -2.0803E+00   1.6923E+02  0.000E+00  0.000E+00  0.000E+00  1.01232E+03  2.940E+00  4.264E+01  4.345E+00 -1.596E-01
   1   13    3     8     4    1.6923E+02 -3.4859E+00   1.7271E+02  0.000E+00  0.000E+00  0.000E+00  1.00608E+03  2.959E+00  4.290E+01  4.371E+00 -2.658E-01
   1   13    2     8     5    1.7271E+02 -2.5417E+00   1.7525E+02  0.000E+00  0.000E+00  0.000E+00  9.99853E+02  2.978E+00  4.318E+01  4.400E+00 -1.925E-01
   1   13    1     8     6    1.7525E+02 -1.9750E+00   1.7723E+02  0.000E+00  0.000E+00  0.000E+00  9.94867E+02  2.992E+00  4.339E+01  2.653E+00 -2.482E-01





UNSATURATED ZONE PACKAGE VOLUMETRIC BUDGET FOR  TIME STEP    30 STRESS PERIOD   29
  ------------------------------------------------------------------------------



     CUMULATIVE VOLUMES      L**3       RATES FOR THIS TIME STEP      L**3/T
     ------------------                 ------------------------

           IN:                                      IN:
           ---                                      ---
        INFILTRATION =  1129969891.5535          INFILTRATION =           7.8526

          OUT:                                     OUT:
          ----                                     ----
              UZF ET =  1037493693.4667                UZF ET =           7.8575
        UZF RECHARGE =      868883.3552          UZF RECHARGE =           0.0030

            IN - OUT =    91607314.7316              IN - OUT =      -7.8633E-03

          STORAGE:                                 STORAGE:
          --------                                 --------
      STORAGE CHANGE =    91608957.8413        STORAGE CHANGE =      -7.8634E-03

 PERCENT DISCREPANCY IS DIFFERENCE BETWEEN IN-OUT MINUS CHANGE IN STORAGE
 DIVIDED BY THE AVERAGE OF IN AND OUT TIMES 100

 PERCENT DISCREPANCY =          -0.00     PERCENT DISCREPANCY =           0.00






1
  VOLUMETRIC BUDGET FOR ENTIRE MODEL AT END OF TIME STEP   30, STRESS PERIOD  29
  ------------------------------------------------------------------------------

     CUMULATIVE VOLUMES      L**3       RATES FOR THIS TIME STEP      L**3/T
     ------------------                 ------------------------

           IN:                                      IN:
           ---                                      ---
               AG WELLS  =   805328448.0000                 AG WELLS  =           3.4451
      DIVERSION SEGMENTS =           0.0000        DIVERSION SEGMENTS =           0.0000
           GW IRRIGATION =           0.0000             GW IRRIGATION =           0.0000
           SW IRRIGATION =           0.0000             SW IRRIGATION =           0.0000
        SYSTEM LOSSES GW =           0.0000          SYSTEM LOSSES GW =           0.0000
        SYSTEM LOSSES SW =           0.0000          SYSTEM LOSSES SW =           0.0000

                TOTAL IN =   805328448.0000                  TOTAL IN =           3.4451

          OUT:                                     OUT:
          ----                                     ----
               AG WELLS  =           0.0000                 AG WELLS  =           0.0000
      DIVERSION SEGMENTS =           0.0000        DIVERSION SEGMENTS =           0.0000
           GW IRRIGATION =   805328448.0000             GW IRRIGATION =           3.4451
           SW IRRIGATION =           0.0000             SW IRRIGATION =           0.0000
        SYSTEM LOSSES GW =           0.0000          SYSTEM LOSSES GW =           0.0000
        SYSTEM LOSSES SW =           0.0000          SYSTEM LOSSES SW =           0.0000

               TOTAL OUT =   805328448.0000                 TOTAL OUT =           3.4451

                IN - OUT =           0.0000                  IN - OUT =           0.0000

     PERCENT DISCREPANCY =           0.00         PERCENT DISCREPANCY =           0.00



1
  VOLUMETRIC BUDGET FOR ENTIRE MODEL AT END OF TIME STEP   30, STRESS PERIOD  29
  ------------------------------------------------------------------------------

     CUMULATIVE VOLUMES      L**3       RATES FOR THIS TIME STEP      L**3/T
     ------------------                 ------------------------

           IN:                                      IN:
           ---                                      ---
             STORAGE     =  1142808448.0000               STORAGE     =           3.8464
       CONSTANT HEAD     =           0.0000         CONSTANT HEAD     =           0.0000
     HEAD DEP BOUNDS     =    21053024.0000       HEAD DEP BOUNDS     =           0.2863
      STREAM LEAKAGE     =   908326976.0000        STREAM LEAKAGE     =          11.8536
        UZF RECHARGE     =      868883.2500          UZF RECHARGE     =       2.9695E-03
               GW ET     =           0.0000                 GW ET     =           0.0000
     SURFACE LEAKAGE     =           0.0000       SURFACE LEAKAGE     =           0.0000
           AG WELLS      =           0.0000             AG WELLS      =           0.0000

                TOTAL IN =  2073057280.0000                  TOTAL IN =          15.9892

          OUT:                                     OUT:
          ----                                     ----
             STORAGE     =   464871392.0000               STORAGE     =           2.1715
       CONSTANT HEAD     =           0.0000         CONSTANT HEAD     =           0.0000
     HEAD DEP BOUNDS     =    21630292.0000       HEAD DEP BOUNDS     =           0.2893
      STREAM LEAKAGE     =   763912704.0000        STREAM LEAKAGE     =          10.0829
        UZF RECHARGE     =           0.0000          UZF RECHARGE     =           0.0000
               GW ET     =    17319432.0000                 GW ET     =           0.0000
     SURFACE LEAKAGE     =           0.0000       SURFACE LEAKAGE     =           0.0000
           AG WELLS      =   805328448.0000             AG WELLS      =           3.4451

               TOTAL OUT =  2073062144.0000                 TOTAL OUT =          15.9888

                IN - OUT =       -4864.0000                  IN - OUT =       4.7493E-04

     PERCENT DISCREPANCY =          -0.00         PERCENT DISCREPANCY =           0.00






         TIME SUMMARY AT END OF TIME STEP   30 IN STRESS PERIOD   29
                    SECONDS     MINUTES      HOURS       DAYS        YEARS
                    -----------------------------------------------------------
   TIME STEP LENGTH  87667.      1461.1      24.352      1.0147     2.77799E-03
 STRESS PERIOD TIME 2.63000E+06  43833.      730.56      30.440     8.33397E-02
         TOTAL TIME 7.37266E+07 1.22878E+06  20480.      853.32      2.3363    
1
1
                            STRESS PERIOD NO.   30, LENGTH =   2630000.    
                            -----------------------------------------------

                              NUMBER OF TIME STEPS =    30

                               MULTIPLIER FOR DELT =     1.000

                            INITIAL TIME STEP SIZE =   87666.66    

 REUSING NON-PARAMETER GHB CELLS FROM LAST STRESS PERIOD

      2 GHB CELLS

 REUSING STREAM SEGMENT DATA FROM LAST STRESS PERIOD



            AREAL INFILTRATION RATE
 READING ON UNIT   19 WITH FORMAT: (10F4.0)            

            1           2           3           4           5           6           7           8           9          10
 ........................................................................................................................
   1   1.2000E-09   0.000       0.000       0.000       0.000       0.000       0.000       0.000       0.000       0.000    
   2   2.1000E-09  2.0000E-09  8.0000E-10  8.5000E-09   0.000       0.000       0.000       0.000       0.000       0.000    
   3   5.0000E-10  1.1000E-09  8.8000E-09  5.5000E-09   0.000       0.000       0.000       0.000       0.000       0.000    
   4   8.5000E-09  1.1000E-09  1.1000E-09  1.1000E-09  2.0000E-09   0.000       0.000       0.000       0.000       0.000    
   5   8.5000E-09  1.1000E-09  1.1000E-09  1.1000E-09  1.1000E-09   0.000       0.000       0.000       0.000       0.000    
   6   8.5000E-09  5.2000E-09  2.1000E-09  1.1000E-09  1.5000E-09   0.000       0.000       0.000       0.000       0.000    
   7   8.5000E-09  5.2000E-09  2.1000E-09  1.2000E-09  2.0000E-09   0.000       0.000       0.000       0.000       0.000    
   8   5.0000E-10  5.2000E-09  2.1000E-09  1.2000E-09  5.0000E-09   0.000       0.000       0.000       0.000       0.000    
   9   5.0000E-10  5.2000E-09  2.1000E-09  1.2000E-09  5.0000E-09   0.000       0.000       0.000       0.000       0.000    
  10   5.0000E-10  5.2000E-09  2.1000E-09  1.2000E-09  5.8000E-09   0.000       0.000       0.000       0.000       0.000    
  11   1.0000E-10  1.1000E-09  1.1000E-09  1.2000E-09  5.0000E-09   0.000       0.000       0.000       0.000       0.000    
  12   1.1000E-09  1.1000E-09  1.1000E-09  1.1000E-09  2.0000E-09   0.000       0.000       0.000       0.000       0.000    
  13   1.1000E-09  2.2000E-09  2.2000E-09  2.1000E-09  1.0000E-09   0.000       0.000       0.000       0.000       0.000    
  14   2.0000E-10  5.5000E-09  5.5000E-09  5.2000E-09  1.0000E-09   0.000       0.000       0.000       0.000       0.000    
  15    0.000      8.8000E-09  8.8000E-09   0.000       0.000       0.000       0.000       0.000       0.000       0.000    

                  ET RATE =  5.000000E-08

 USING ET EXTINCTION DEPTH FROM PREVIOUS STRESS PERIOD. CURRENT PERIOD IS:      30

 USING EXTINCTION WATER CONTENT FROM PREVIOUS STRESS PERIOD. CURRENT PERIOD IS:      30

 USING AIR ENTRY PRESSURE FROM PREVIOUS STRESS PERIOD. CURRENT PERIOD IS:      30

 USING ROOT PRESSURE HEAD FROM PREVIOUS STRESS PERIOD. CURRENT PERIOD IS:      30

 USING ROOT ACTIVITY FROM PREVIOUS STRESS PERIOD. CURRENT PERIOD IS:      30

 PROCESSING AG STRESS PERIOD DATA

 READING AG STRESS PERIOD DATA

 READING IRRIGATION WELL

 END PROCESSING AG STRESS PERIOD DATA OPTIONS
 
 SOLVING FOR HEAD 
                                                   Max.-Head-Change                         Max.-Flux-Residual
  Residual-Control   Outer-Iter.   Inner-Iter.     Column Row Layer    Maximum-Head-Change  Column Row Layer    Maximum-Flux-Residual          L2-NORM 
          0                 1           2             5    7     1      -0.1232721921E-01       5    7    1        -0.6529521858E+00      0.1697577443E+01
          0                 2           2             5    7     1       0.1199102096E-02       5    7    1         0.6529521122E-01      0.1697561063E+00
          0                 3           1             5    7     1      -0.8165445046E-04       5    7    1        -0.4570666827E-02      0.1188282800E-01

    ------------------------------------------------
       NWT REQUIRED            3 OUTER ITERATIONS 
       AND A TOTAL OF          5 INNER ITERATIONS.
    ------------------------------------------------

 NO OUTPUT CONTROL FOR STRESS PERIOD   30   TIME STEP    1
 
 SOLVING FOR HEAD 
                                                   Max.-Head-Change                         Max.-Flux-Residual
  Residual-Control   Outer-Iter.   Inner-Iter.     Column Row Layer    Maximum-Head-Change  Column Row Layer    Maximum-Flux-Residual          L2-NORM 
          0                 1           2             4    7     1      -0.1211165538E-01       4    7    1        -0.6346129103E+00      0.1634926655E+01
          0                 2           2             4    7     1       0.1178133378E-02       4    7    1         0.6346126954E-01      0.1634911198E+00
          0                 3           1             4    7     1      -0.8022651860E-04       4    7    1        -0.4442290991E-02      0.1144428556E-01

    ------------------------------------------------
       NWT REQUIRED            3 OUTER ITERATIONS 
       AND A TOTAL OF          5 INNER ITERATIONS.
    ------------------------------------------------

 NO OUTPUT CONTROL FOR STRESS PERIOD   30   TIME STEP    2
 
 SOLVING FOR HEAD 
                                                   Max.-Head-Change                         Max.-Flux-Residual
  Residual-Control   Outer-Iter.   Inner-Iter.     Column Row Layer    Maximum-Head-Change  Column Row Layer    Maximum-Flux-Residual          L2-NORM 
          0                 1           2             4    7     1      -0.1200539680E-01       4    7    1        -0.6293085373E+00      0.1601135994E+01
          0                 2           2             4    7     1       0.1167797174E-02       4    7    1         0.6293082237E-01      0.1601121343E+00
          0                 3           1             4    7     1      -0.7952266271E-04       4    7    1        -0.4405159750E-02      0.1120775309E-01

    ------------------------------------------------
       NWT REQUIRED            3 OUTER ITERATIONS 
       AND A TOTAL OF          5 INNER ITERATIONS.
    ------------------------------------------------

 NO OUTPUT CONTROL FOR STRESS PERIOD   30   TIME STEP    3
 
 SOLVING FOR HEAD 
                                                   Max.-Head-Change                         Max.-Flux-Residual
  Residual-Control   Outer-Iter.   Inner-Iter.     Column Row Layer    Maximum-Head-Change  Column Row Layer    Maximum-Flux-Residual          L2-NORM 
          0                 1           2             4    7     1      -0.1189534777E-01       4    7    1        -0.6237843275E+00      0.1568392203E+01
          0                 2           2             4    7     1       0.1157092278E-02       4    7    1         0.6237839252E-01      0.1568378156E+00
          0                 3           1             4    7     1      -0.7879370027E-04       4    7    1        -0.4366489736E-02      0.1097854931E-01

    ------------------------------------------------
       NWT REQUIRED            3 OUTER ITERATIONS 
       AND A TOTAL OF          5 INNER ITERATIONS.
    ------------------------------------------------

 NO OUTPUT CONTROL FOR STRESS PERIOD   30   TIME STEP    4
 
 SOLVING FOR HEAD 
                                                   Max.-Head-Change                         Max.-Flux-Residual
  Residual-Control   Outer-Iter.   Inner-Iter.     Column Row Layer    Maximum-Head-Change  Column Row Layer    Maximum-Flux-Residual          L2-NORM 
          0                 1           2             4    7     1      -0.1178193445E-01       4    7    1        -0.6180635930E+00      0.1536764388E+01
          0                 2           2             4    7     1       0.1146060142E-02       4    7    1         0.6180631118E-01      0.1536751192E+00
          0                 3           1             4    7     1      -0.7804245434E-04       4    7    1        -0.4326444110E-02      0.1075715315E-01

    ------------------------------------------------
       NWT REQUIRED            3 OUTER ITERATIONS 
       AND A TOTAL OF          5 INNER ITERATIONS.
    ------------------------------------------------

 NO OUTPUT CONTROL FOR STRESS PERIOD   30   TIME STEP    5
 
 SOLVING FOR HEAD 
                                                   Max.-Head-Change                         Max.-Flux-Residual
  Residual-Control   Outer-Iter.   Inner-Iter.     Column Row Layer    Maximum-Head-Change  Column Row Layer    Maximum-Flux-Residual          L2-NORM 
          0                 1           2             4    7     1      -0.1166554918E-01       4    7    1        -0.6121684290E+00      0.1506242135E+01
          0                 2           2             4    7     1       0.1134738930E-02       4    7    1         0.6121678776E-01      0.1506229498E+00
          0                 3           1             4    7     1      -0.7727152252E-04       4    7    1        -0.4285177518E-02      0.1054351007E-01

    ------------------------------------------------
       NWT REQUIRED            3 OUTER ITERATIONS 
       AND A TOTAL OF          5 INNER ITERATIONS.
    ------------------------------------------------

 NO OUTPUT CONTROL FOR STRESS PERIOD   30   TIME STEP    6
 
 SOLVING FOR HEAD 
                                                   Max.-Head-Change                         Max.-Flux-Residual
  Residual-Control   Outer-Iter.   Inner-Iter.     Column Row Layer    Maximum-Head-Change  Column Row Layer    Maximum-Flux-Residual          L2-NORM 
          0                 1           2             4    7     1      -0.1154669969E-01       4    7    1        -0.6061265229E+00      0.1476836676E+01
          0                 2           2             4    7     1       0.1123178027E-02       4    7    1         0.6061259091E-01      0.1476824590E+00
          0                 3           1             4    7     1      -0.7648426900E-04       4    7    1        -0.4242883785E-02      0.1033769554E-01

    ------------------------------------------------
       NWT REQUIRED            3 OUTER ITERATIONS 
       AND A TOTAL OF          5 INNER ITERATIONS.
    ------------------------------------------------

 NO OUTPUT CONTROL FOR STRESS PERIOD   30   TIME STEP    7
 
 SOLVING FOR HEAD 
                                                   Max.-Head-Change                         Max.-Flux-Residual
  Residual-Control   Outer-Iter.   Inner-Iter.     Column Row Layer    Maximum-Head-Change  Column Row Layer    Maximum-Flux-Residual          L2-NORM 
          0                 1           2             4    7     1      -0.1142558479E-01       4    7    1        -0.5999495089E+00      0.1448503826E+01
          0                 2           2             4    7     1       0.1111396772E-02       4    7    1         0.5999488406E-01      0.1448492190E+00
          0                 3           1             4    7     1      -0.7568200968E-04       4    7    1        -0.4199644323E-02      0.1013935233E-01

    ------------------------------------------------
       NWT REQUIRED            3 OUTER ITERATIONS 
       AND A TOTAL OF          5 INNER ITERATIONS.
    ------------------------------------------------

 NO OUTPUT CONTROL FOR STRESS PERIOD   30   TIME STEP    8
 
 SOLVING FOR HEAD 
                                                   Max.-Head-Change                         Max.-Flux-Residual
  Residual-Control   Outer-Iter.   Inner-Iter.     Column Row Layer    Maximum-Head-Change  Column Row Layer    Maximum-Flux-Residual          L2-NORM 
          0                 1           2             4    7     1      -0.1130253167E-01       4    7    1        -0.5936550408E+00      0.1421229046E+01
          0                 2           2             4    7     1       0.1099426991E-02       4    7    1         0.5936543248E-01      0.1421217759E+00
          0                 3           1             4    7     1      -0.7486691261E-04       4    7    1        -0.4155582735E-02      0.9948434660E-02

    ------------------------------------------------
       NWT REQUIRED            3 OUTER ITERATIONS 
       AND A TOTAL OF          5 INNER ITERATIONS.
    ------------------------------------------------

 NO OUTPUT CONTROL FOR STRESS PERIOD   30   TIME STEP    9
 
 SOLVING FOR HEAD 
                                                   Max.-Head-Change                         Max.-Flux-Residual
  Residual-Control   Outer-Iter.   Inner-Iter.     Column Row Layer    Maximum-Head-Change  Column Row Layer    Maximum-Flux-Residual          L2-NORM 
          0                 1           2             4    7     1      -0.1117797413E-01       4    7    1        -0.5872674267E+00      0.1394956769E+01
          0                 2           2             4    7     1       0.1087310882E-02       4    7    1         0.5872666690E-01      0.1394945776E+00
          0                 3           1             4    7     1      -0.7404185148E-04       4    7    1        -0.4110869188E-02      0.9764524988E-02

    ------------------------------------------------
       NWT REQUIRED            3 OUTER ITERATIONS 
       AND A TOTAL OF          5 INNER ITERATIONS.
    ------------------------------------------------

 NO OUTPUT CONTROL FOR STRESS PERIOD   30   TIME STEP   10
 
 SOLVING FOR HEAD 
                                                   Max.-Head-Change                         Max.-Flux-Residual
  Residual-Control   Outer-Iter.   Inner-Iter.     Column Row Layer    Maximum-Head-Change  Column Row Layer    Maximum-Flux-Residual          L2-NORM 
          0                 1           2             4    7     1      -0.1105192042E-01       4    7    1        -0.5807871261E+00      0.1369665613E+01
          0                 2           2             4    7     1       0.1075049242E-02       4    7    1         0.5807863324E-01      0.1369654804E+00
          0                 3           1             4    7     1      -0.7320687966E-04       4    7    1        -0.4065506840E-02      0.9587493911E-02

    ------------------------------------------------
       NWT REQUIRED            3 OUTER ITERATIONS 
       AND A TOTAL OF          5 INNER ITERATIONS.
    ------------------------------------------------

 NO OUTPUT CONTROL FOR STRESS PERIOD   30   TIME STEP   11
 
 SOLVING FOR HEAD 
                                                   Max.-Head-Change                         Max.-Flux-Residual
  Residual-Control   Outer-Iter.   Inner-Iter.     Column Row Layer    Maximum-Head-Change  Column Row Layer    Maximum-Flux-Residual          L2-NORM 
          0                 1           2             4    7     1      -0.1092490839E-01       4    7    1        -0.5742439432E+00      0.1345308140E+01
          0                 2           2             4    7     1       0.1062626395E-02       4    7    1         0.5742431190E-01      0.1343968363E+00
          0                 3           1             4    7     1      -0.7236093022E-04       4    7    1        -0.4019704356E-02      0.9407675270E-02

    ------------------------------------------------
       NWT REQUIRED            3 OUTER ITERATIONS 
       AND A TOTAL OF          5 INNER ITERATIONS.
    ------------------------------------------------

 NO OUTPUT CONTROL FOR STRESS PERIOD   30   TIME STEP   12
 
 SOLVING FOR HEAD 
                                                   Max.-Head-Change                         Max.-Flux-Residual
  Residual-Control   Outer-Iter.   Inner-Iter.     Column Row Layer    Maximum-Head-Change  Column Row Layer    Maximum-Flux-Residual          L2-NORM 
          0                 1           2             4    7     1      -0.1079726710E-01       4    7    1        -0.5676473467E+00      0.1321954428E+01
          0                 2           2             4    7     1       0.1050278365E-02       4    7    1         0.5676464994E-01      0.1321944755E+00
          0                 3           1             4    7     1      -0.7152007517E-04       4    7    1        -0.3973528017E-02      0.9253535252E-02

    ------------------------------------------------
       NWT REQUIRED            3 OUTER ITERATIONS 
       AND A TOTAL OF          5 INNER ITERATIONS.
    ------------------------------------------------

 NO OUTPUT CONTROL FOR STRESS PERIOD   30   TIME STEP   13
 
 SOLVING FOR HEAD 
                                                   Max.-Head-Change                         Max.-Flux-Residual
  Residual-Control   Outer-Iter.   Inner-Iter.     Column Row Layer    Maximum-Head-Change  Column Row Layer    Maximum-Flux-Residual          L2-NORM 
          0                 1           2             4    7     1      -0.1066900377E-01       4    7    1        -0.5610109003E+00      0.1299498902E+01
          0                 2           2             4    7     1       0.1037801813E-02       4    7    1         0.5610100329E-01      0.1299489354E+00
          0                 3           1             4    7     1      -0.7067046877E-04       4    7    1        -0.3927072757E-02      0.9096331224E-02

    ------------------------------------------------
       NWT REQUIRED            3 OUTER ITERATIONS 
       AND A TOTAL OF          5 INNER ITERATIONS.
    ------------------------------------------------

 NO OUTPUT CONTROL FOR STRESS PERIOD   30   TIME STEP   14
 
 SOLVING FOR HEAD 
                                                   Max.-Head-Change                         Max.-Flux-Residual
  Residual-Control   Outer-Iter.   Inner-Iter.     Column Row Layer    Maximum-Head-Change  Column Row Layer    Maximum-Flux-Residual          L2-NORM 
          0                 1           2             4    7     1      -0.1054038599E-01       4    7    1        -0.5543458197E+00      0.1277850650E+01
          0                 2           2             4    7     1       0.1025290788E-02       4    7    1         0.5543449360E-01      0.1277841233E+00
          0                 3           1             4    7     1      -0.6981851434E-04       4    7    1        -0.3880417063E-02      0.8944790709E-02

    ------------------------------------------------
       NWT REQUIRED            3 OUTER ITERATIONS 
       AND A TOTAL OF          5 INNER ITERATIONS.
    ------------------------------------------------

 NO OUTPUT CONTROL FOR STRESS PERIOD   30   TIME STEP   15
 
 SOLVING FOR HEAD 
                                                   Max.-Head-Change                         Max.-Flux-Residual
  Residual-Control   Outer-Iter.   Inner-Iter.     Column Row Layer    Maximum-Head-Change  Column Row Layer    Maximum-Flux-Residual          L2-NORM 
          0                 1           2             4    7     1      -0.1041160094E-01       4    7    1        -0.5476623651E+00      0.1256978167E+01
          0                 2           2             4    7     1       0.1012763496E-02       4    7    1         0.5476614687E-01      0.1256968999E+00
          0                 3           1             4    7     1      -0.6896545251E-04       4    7    1        -0.3833632780E-02      0.8798678071E-02

    ------------------------------------------------
       NWT REQUIRED            3 OUTER ITERATIONS 
       AND A TOTAL OF          5 INNER ITERATIONS.
    ------------------------------------------------

 NO OUTPUT CONTROL FOR STRESS PERIOD   30   TIME STEP   16
 
 SOLVING FOR HEAD 
                                                   Max.-Head-Change                         Max.-Flux-Residual
  Residual-Control   Outer-Iter.   Inner-Iter.     Column Row Layer    Maximum-Head-Change  Column Row Layer    Maximum-Flux-Residual          L2-NORM 
          0                 1           2             4    7     1      -0.1028281941E-01       4    7    1        -0.5409702407E+00      0.1236836228E+01
          0                 2           2             4    7     1       0.1000236553E-02       4    7    1         0.5409693349E-01      0.1236827194E+00
          0                 3           1             4    7     1      -0.6811241435E-04       4    7    1        -0.3786787834E-02      0.8657709681E-02

    ------------------------------------------------
       NWT REQUIRED            3 OUTER ITERATIONS 
       AND A TOTAL OF          5 INNER ITERATIONS.
    ------------------------------------------------

 NO OUTPUT CONTROL FOR STRESS PERIOD   30   TIME STEP   17
 
 SOLVING FOR HEAD 
                                                   Max.-Head-Change                         Max.-Flux-Residual
  Residual-Control   Outer-Iter.   Inner-Iter.     Column Row Layer    Maximum-Head-Change  Column Row Layer    Maximum-Flux-Residual          L2-NORM 
          0                 1           2             4    7     1      -0.1015420096E-01       4    7    1        -0.5342783023E+00      0.1217410624E+01
          0                 2           2             4    7     1       0.9877254768E-03       4    7    1         0.5342773899E-01      0.1217401577E+00
          0                 3           1             4    7     1      -0.6726045684E-04       4    7    1        -0.3739944223E-02      0.8521720453E-02

    ------------------------------------------------
       NWT REQUIRED            3 OUTER ITERATIONS 
       AND A TOTAL OF          5 INNER ITERATIONS.
    ------------------------------------------------

 NO OUTPUT CONTROL FOR STRESS PERIOD   30   TIME STEP   18
 
 SOLVING FOR HEAD 
                                                   Max.-Head-Change                         Max.-Flux-Residual
  Residual-Control   Outer-Iter.   Inner-Iter.     Column Row Layer    Maximum-Head-Change  Column Row Layer    Maximum-Flux-Residual          L2-NORM 
          0                 1           2             4    7     1      -0.1002589284E-01       4    7    1        -0.5275948225E+00      0.1198657990E+01
          0                 2           2             4    7     1       0.9752445907E-03       4    7    1         0.5275939061E-01      0.1198644691E+00
          0                 3           1             4    7     1      -0.6641055425E-04       4    7    1        -0.3693159794E-02      0.8390461400E-02

    ------------------------------------------------
       NWT REQUIRED            3 OUTER ITERATIONS 
       AND A TOTAL OF          5 INNER ITERATIONS.
    ------------------------------------------------

 NO OUTPUT CONTROL FOR STRESS PERIOD   30   TIME STEP   19
 
 SOLVING FOR HEAD 
                                                   Max.-Head-Change                         Max.-Flux-Residual
  Residual-Control   Outer-Iter.   Inner-Iter.     Column Row Layer    Maximum-Head-Change  Column Row Layer    Maximum-Flux-Residual          L2-NORM 
          0                 1           2             4    7     1      -0.9898162352E-02       4    7    1        -0.5209347790E+00      0.1180567009E+01
          0                 2           2             4    7     1       0.9628198958E-03       4    7    1         0.5209338611E-01      0.1180544976E+00
          0                 3           1             4    7     1      -0.6556447866E-04       4    7    1        -0.3646539451E-02      0.8263707247E-02

    ------------------------------------------------
       NWT REQUIRED            3 OUTER ITERATIONS 
       AND A TOTAL OF          5 INNER ITERATIONS.
    ------------------------------------------------

 NO OUTPUT CONTROL FOR STRESS PERIOD   30   TIME STEP   20
 
 SOLVING FOR HEAD 
                                                   Max.-Head-Change                         Max.-Flux-Residual
  Residual-Control   Outer-Iter.   Inner-Iter.     Column Row Layer    Maximum-Head-Change  Column Row Layer    Maximum-Flux-Residual          L2-NORM 
          0                 1           2             4    7     1      -0.9770860241E-02       4    7    1        -0.5142900020E+00      0.1163079359E+01
          0                 2           2             4    7     1       0.9504368743E-03       4    7    1         0.5142890848E-01      0.1163058943E+00
          0                 3           1             4    7     1      -0.6472124078E-04       4    7    1        -0.3600026011E-02      0.8141328316E-02

    ------------------------------------------------
       NWT REQUIRED            3 OUTER ITERATIONS 
       AND A TOTAL OF          5 INNER ITERATIONS.
    ------------------------------------------------

 NO OUTPUT CONTROL FOR STRESS PERIOD   30   TIME STEP   21
 
 SOLVING FOR HEAD 
                                                   Max.-Head-Change                         Max.-Flux-Residual
  Residual-Control   Outer-Iter.   Inner-Iter.     Column Row Layer    Maximum-Head-Change  Column Row Layer    Maximum-Flux-Residual          L2-NORM 
          0                 1           2             4    7     1      -0.9644375036E-02       4    7    1        -0.5076821242E+00      0.1146179810E+01
          0                 2           2             4    7     1       0.9381333174E-03       4    7    1         0.5076812092E-01      0.1146160336E+00
          0                 3           1             4    7     1      -0.6388341433E-04       4    7    1        -0.3553770869E-02      0.8023011946E-02

    ------------------------------------------------
       NWT REQUIRED            3 OUTER ITERATIONS 
       AND A TOTAL OF          5 INNER ITERATIONS.
    ------------------------------------------------

 NO OUTPUT CONTROL FOR STRESS PERIOD   30   TIME STEP   22
 
 SOLVING FOR HEAD 
                                                   Max.-Head-Change                         Max.-Flux-Residual
  Residual-Control   Outer-Iter.   Inner-Iter.     Column Row Layer    Maximum-Head-Change  Column Row Layer    Maximum-Flux-Residual          L2-NORM 
          0                 1           2             4    7     1      -0.9518534988E-02       4    7    1        -0.5011019198E+00      0.1129849290E+01
          0                 2           2             4    7     1       0.9258925195E-03       4    7    1         0.5011010090E-01      0.1129831148E+00
          0                 3           1             4    7     1      -0.6304986136E-04       4    7    1        -0.3507709441E-02      0.7908715355E-02

    ------------------------------------------------
       NWT REQUIRED            3 OUTER ITERATIONS 
       AND A TOTAL OF          5 INNER ITERATIONS.
    ------------------------------------------------

 NO OUTPUT CONTROL FOR STRESS PERIOD   30   TIME STEP   23
 
 SOLVING FOR HEAD 
                                                   Max.-Head-Change                         Max.-Flux-Residual
  Residual-Control   Outer-Iter.   Inner-Iter.     Column Row Layer    Maximum-Head-Change  Column Row Layer    Maximum-Flux-Residual          L2-NORM 
          0                 1           2             4    7     1      -0.9393711465E-02       4    7    1        -0.4945698534E+00      0.1114062412E+01
          0                 2           2             4    7     1       0.9137506044E-03       4    7    1         0.4945689486E-01      0.1114045179E+00
          0                 3           1             4    7     1      -0.6222304222E-04       4    7    1        -0.3461985005E-02      0.7798211538E-02

    ------------------------------------------------
       NWT REQUIRED            3 OUTER ITERATIONS 
       AND A TOTAL OF          5 INNER ITERATIONS.
    ------------------------------------------------

 NO OUTPUT CONTROL FOR STRESS PERIOD   30   TIME STEP   24
 
 SOLVING FOR HEAD 
                                                   Max.-Head-Change                         Max.-Flux-Residual
  Residual-Control   Outer-Iter.   Inner-Iter.     Column Row Layer    Maximum-Head-Change  Column Row Layer    Maximum-Flux-Residual          L2-NORM 
          0                 1           2             4    7     1      -0.9269847040E-02       4    7    1        -0.4880831529E+00      0.1098792550E+01
          0                 2           2             4    7     1       0.9017019846E-03       4    7    1         0.4880822550E-01      0.1098776193E+00
          0                 3           1             4    7     1      -0.6140257539E-04       4    7    1        -0.3416578114E-02      0.7691340166E-02

    ------------------------------------------------
       NWT REQUIRED            3 OUTER ITERATIONS 
       AND A TOTAL OF          5 INNER ITERATIONS.
    ------------------------------------------------

 NO OUTPUT CONTROL FOR STRESS PERIOD   30   TIME STEP   25
 
 SOLVING FOR HEAD 
                                                   Max.-Head-Change                         Max.-Flux-Residual
  Residual-Control   Outer-Iter.   Inner-Iter.     Column Row Layer    Maximum-Head-Change  Column Row Layer    Maximum-Flux-Residual          L2-NORM 
          0                 1           2             4    7     1      -0.9147023048E-02       4    7    1        -0.4816461829E+00      0.1084026815E+01
          0                 2           2             4    7     1       0.8897545732E-03       4    7    1         0.4816452935E-01      0.1084010944E+00
          0                 3           1             4    7     1      -0.6058900120E-04       4    7    1        -0.3371519363E-02      0.7587971284E-02

    ------------------------------------------------
       NWT REQUIRED            3 OUTER ITERATIONS 
       AND A TOTAL OF          5 INNER ITERATIONS.
    ------------------------------------------------

 NO OUTPUT CONTROL FOR STRESS PERIOD   30   TIME STEP   26
 
 SOLVING FOR HEAD 
                                                   Max.-Head-Change                         Max.-Flux-Residual
  Residual-Control   Outer-Iter.   Inner-Iter.     Column Row Layer    Maximum-Head-Change  Column Row Layer    Maximum-Flux-Residual          L2-NORM 
          0                 1           2             4    7     1      -0.9025440725E-02       4    7    1        -0.4752705023E+00      0.1069737598E+01
          0                 2           2             4    7     1       0.8779279428E-03       4    7    1         0.4752696221E-01      0.1069722485E+00
          0                 3           1             4    7     1      -0.5978365104E-04       4    7    1        -0.3326889630E-02      0.7487956579E-02

    ------------------------------------------------
       NWT REQUIRED            3 OUTER ITERATIONS 
       AND A TOTAL OF          5 INNER ITERATIONS.
    ------------------------------------------------

 NO OUTPUT CONTROL FOR STRESS PERIOD   30   TIME STEP   27
 
 SOLVING FOR HEAD 
                                                   Max.-Head-Change                         Max.-Flux-Residual
  Residual-Control   Outer-Iter.   Inner-Iter.     Column Row Layer    Maximum-Head-Change  Column Row Layer    Maximum-Flux-Residual          L2-NORM 
          0                 1           2             4    7     1      -0.8904890370E-02       4    7    1        -0.4689445196E+00      0.1055908314E+01
          0                 2           2             4    7     1       0.8662016966E-03       4    7    1         0.4689436498E-01      0.1055893742E+00
          0                 3           1             4    7     1      -0.5898513696E-04       4    7    1        -0.3282607784E-02      0.7391148791E-02

    ------------------------------------------------
       NWT REQUIRED            3 OUTER ITERATIONS 
       AND A TOTAL OF          5 INNER ITERATIONS.
    ------------------------------------------------

 NO OUTPUT CONTROL FOR STRESS PERIOD   30   TIME STEP   28
 
 SOLVING FOR HEAD 
                                                   Max.-Head-Change                         Max.-Flux-Residual
  Residual-Control   Outer-Iter.   Inner-Iter.     Column Row Layer    Maximum-Head-Change  Column Row Layer    Maximum-Flux-Residual          L2-NORM 
          0                 1           2             4    7     1      -0.8785700688E-02       4    7    1        -0.4626867287E+00      0.1042516337E+01
          0                 2           2             4    7     1       0.8546078083E-03       4    7    1         0.4626858700E-01      0.1042502639E+00
          0                 3           1             4    7     1      -0.5819563646E-04       4    7    1        -0.3238803323E-02      0.7297438070E-02

    ------------------------------------------------
       NWT REQUIRED            3 OUTER ITERATIONS 
       AND A TOTAL OF          5 INNER ITERATIONS.
    ------------------------------------------------

 NO OUTPUT CONTROL FOR STRESS PERIOD   30   TIME STEP   29
 
 SOLVING FOR HEAD 
                                                   Max.-Head-Change                         Max.-Flux-Residual
  Residual-Control   Outer-Iter.   Inner-Iter.     Column Row Layer    Maximum-Head-Change  Column Row Layer    Maximum-Flux-Residual          L2-NORM 
          0                 1           2             4    7     1      -0.8667787178E-02       4    7    1        -0.4564921476E+00      0.1029554295E+01
          0                 2           2             4    7     1       0.8431380569E-03       4    7    1         0.4564913006E-01      0.1029540819E+00
          0                 3           1             4    7     1      -0.5741458875E-04       4    7    1        -0.3195441291E-02      0.7206712237E-02

    ------------------------------------------------
       NWT REQUIRED            3 OUTER ITERATIONS 
       AND A TOTAL OF          5 INNER ITERATIONS.
    ------------------------------------------------

 NO OUTPUT CONTROL FOR STRESS PERIOD   30   TIME STEP   30



 STREAM LISTING     PERIOD     30   STEP       30

 LAYER ROW COL. STREAM  RCH.  FLOW INTO     FLOW TO   FLOW OUT OF   OVRLND.     DIRECT     STREAM       STREAM     STREAM     STREAM   STREAMBED  STREAMBED
                SEG.NO.  NO.  STRM. RCH.    AQUIFER    STRM. RCH.    RUNOFF     PRECIP       ET          HEAD       DEPTH      WIDTH   CONDCTNC.   GRADIENT

   1    1    1     1     1    1.9000E+01  2.1427E-01   1.8786E+01  0.000E+00  0.000E+00  0.000E+00  1.09413E+03  1.082E+00  1.166E+01  5.249E-02  1.361E+00
   1    2    2     1     2    1.8786E+01  3.3054E-01   1.8455E+01  0.000E+00  0.000E+00  0.000E+00  1.08914E+03  1.077E+00  1.158E+01  8.107E-02  1.359E+00
   1    3    3     1     3    1.8455E+01  2.8064E-01   1.8175E+01  0.000E+00  0.000E+00  0.000E+00  1.08349E+03  1.072E+00  1.149E+01  6.892E-02  1.357E+00
   1    3    4     1     4    1.8175E+01  2.5740E-01   1.7917E+01  0.000E+00  0.000E+00  0.000E+00  1.07848E+03  1.068E+00  1.140E+01  6.328E-02  1.356E+00
   1    4    5     2     1    1.5917E+01  3.0542E-01   1.5612E+01  0.000E+00  0.000E+00  0.000E+00  1.07285E+03  9.157E-01  1.200E+01  7.800E-02  1.305E+00
   1    5    6     2     2    1.5612E+01  2.3438E-01   1.5377E+01  0.000E+00  0.000E+00  0.000E+00  1.06742E+03  9.063E-01  1.200E+01  6.000E-02  1.302E+00
   1    6    6     2     3    1.5377E+01  2.3388E-01   1.5143E+01  0.000E+00  0.000E+00  0.000E+00  1.06269E+03  8.980E-01  1.200E+01  6.000E-02  1.299E+00
   1    7    6     2     4    1.5143E+01  2.3338E-01   1.4910E+01  0.000E+00  0.000E+00  0.000E+00  1.05797E+03  8.897E-01  1.200E+01  6.000E-02  1.297E+00
   1    8    6     2     5    1.4910E+01  2.3289E-01   1.4677E+01  0.000E+00  0.000E+00  0.000E+00  1.05324E+03  8.814E-01  1.200E+01  6.000E-02  1.294E+00
   1    3    5     3     1    2.0000E+00  2.8252E-01   1.7175E+00  0.000E+00  0.000E+00  0.000E+00  1.07555E+03  1.909E+00  9.636E+00  7.227E-02  1.955E+00
   1    3    6     3     2    1.7175E+00  2.4905E-01   1.4684E+00  0.000E+00  0.000E+00  0.000E+00  1.07264E+03  1.727E+00  8.909E+00  6.682E-02  1.864E+00
   1    3    7     3     3    1.4684E+00  1.9718E-01   1.2712E+00  0.000E+00  0.000E+00  0.000E+00  1.06987E+03  1.555E+00  8.218E+00  5.547E-02  1.777E+00
   1    4    8     3     4    1.2712E+00  2.2567E-01   1.0456E+00  0.000E+00  0.000E+00  0.000E+00  1.06682E+03  1.364E+00  7.455E+00  6.709E-02  1.682E+00
   1    5    8     3     5    1.0456E+00  1.5790E-01   8.8768E-01  0.000E+00  0.000E+00  0.000E+00  1.06362E+03  1.164E+00  6.655E+00  4.991E-02  1.582E+00
   1    6    8     3     6    8.8768E-01  5.5980E-02   8.3170E-01  0.000E+00  0.000E+00  0.000E+00  1.06158E+03  1.036E+00  6.145E+00  1.844E-02  1.518E+00
   1    5   10     4     1    1.0000E+01  9.0919E-02   9.9091E+00  0.000E+00  0.000E+00  0.000E+00  1.07836E+03  6.368E-01  1.000E+01  2.500E-02  1.212E+00
   1    5    9     4     2    9.9091E+00  1.8158E-01   9.7275E+00  0.000E+00  0.000E+00  0.000E+00  1.07154E+03  6.315E-01  1.000E+01  5.000E-02  1.211E+00
   1    6    8     4     3    9.7275E+00  1.2689E-01   9.6006E+00  0.000E+00  0.000E+00  0.000E+00  1.06381E+03  6.256E-01  1.000E+01  3.500E-02  1.209E+00
   1    6    8     5     1    1.0432E+01  2.2686E-01   1.0205E+01  0.000E+00  0.000E+00  0.000E+00  1.05868E+03  6.790E-01  1.542E+01  6.166E-02  1.226E+00
   1    7    7     5     2    1.0205E+01  2.7894E-01   9.9265E+00  0.000E+00  0.000E+00  0.000E+00  1.05417E+03  6.732E-01  1.519E+01  7.594E-02  1.224E+00
   1    8    7     5     3    9.9265E+00  1.9221E-01   9.7343E+00  0.000E+00  0.000E+00  0.000E+00  1.04992E+03  6.676E-01  1.497E+01  5.241E-02  1.223E+00
   1    8    6     5     4    9.7343E+00  1.3577E-01   9.5985E+00  0.000E+00  0.000E+00  0.000E+00  1.04691E+03  6.637E-01  1.482E+01  3.706E-02  1.221E+00
   1    9    6     6     1    2.4276E+01  2.5176E-01   2.4024E+01  0.000E+00  0.000E+00  0.000E+00  1.04392E+03  1.196E+00  1.200E+01  6.000E-02  1.399E+00
   1   10    7     6     2    2.4024E+01  2.5131E-01   2.3773E+01  0.000E+00  0.000E+00  0.000E+00  1.03937E+03  1.188E+00  1.200E+01  6.000E-02  1.396E+00
   1   11    7     6     3    2.3773E+01  2.5086E-01   2.3522E+01  0.000E+00  0.000E+00  0.000E+00  1.03482E+03  1.181E+00  1.200E+01  6.000E-02  1.394E+00
   1   12    7     6     4    2.3522E+01  2.5041E-01   2.3271E+01  0.000E+00  0.000E+00  0.000E+00  1.03026E+03  1.173E+00  1.200E+01  6.000E-02  1.391E+00
   1   13    7     6     5    2.3271E+01  5.7822E-03   2.3266E+01  0.000E+00  0.000E+00  0.000E+00  1.02708E+03  1.170E+00  1.200E+01  2.400E-02  8.031E-02
   1   14    9     7     1    1.5000E+02  1.3453E+00   1.4865E+02  0.000E+00  0.000E+00  0.000E+00  1.03987E+03  2.288E+00  5.529E+01  5.593E-01  8.018E-01
   1   13    8     7     2    1.4865E+02  1.8945E+00   1.4676E+02  0.000E+00  0.000E+00  0.000E+00  1.03478E+03  2.279E+00  5.526E+01  6.148E-01  1.027E+00
   1   13    7     7     3    1.4676E+02  1.5923E+00   1.4517E+02  0.000E+00  0.000E+00  0.000E+00  1.02969E+03  2.270E+00  5.521E+01  5.584E-01  9.505E-01
   1   13    6     8     1    1.6843E+02  1.0370E+00   1.6740E+02  0.000E+00  0.000E+00  0.000E+00  1.02481E+03  2.939E+00  4.261E+01  4.342E-01  7.961E-01
   1   13    5     8     2    1.6740E+02  2.8611E-01   1.6711E+02  0.000E+00  0.000E+00  0.000E+00  1.01856E+03  2.934E+00  4.255E+01  4.336E-01  2.200E-01
   1   13    4     8     3    1.6711E+02 -2.0626E+00   1.6917E+02  0.000E+00  0.000E+00  0.000E+00  1.01232E+03  2.940E+00  4.263E+01  4.344E+00 -1.583E-01
   1   13    3     8     4    1.6917E+02 -3.4699E+00   1.7264E+02  0.000E+00  0.000E+00  0.000E+00  1.00608E+03  2.958E+00  4.289E+01  4.371E+00 -2.646E-01
   1   13    2     8     5    1.7264E+02 -2.5368E+00   1.7518E+02  0.000E+00  0.000E+00  0.000E+00  9.99852E+02  2.977E+00  4.317E+01  4.400E+00 -1.922E-01
   1   13    1     8     6    1.7518E+02 -1.9735E+00   1.7715E+02  0.000E+00  0.000E+00  0.000E+00  9.94867E+02  2.992E+00  4.338E+01  2.653E+00 -2.480E-01





UNSATURATED ZONE PACKAGE VOLUMETRIC BUDGET FOR  TIME STEP    30 STRESS PERIOD   30
  ------------------------------------------------------------------------------



     CUMULATIVE VOLUMES      L**3       RATES FOR THIS TIME STEP      L**3/T
     ------------------                 ------------------------

           IN:                                      IN:
           ---                                      ---
        INFILTRATION =  1160437930.2585          INFILTRATION =          11.6006

          OUT:                                     OUT:
          ----                                     ----
              UZF ET =  1068021417.1327                UZF ET =          11.6075
        UZF RECHARGE =      876037.1191          UZF RECHARGE =           0.0012

            IN - OUT =    91540476.0068              IN - OUT =      -8.1113E-03

          STORAGE:                                 STORAGE:
          --------                                 --------
      STORAGE CHANGE =    91542118.7286        STORAGE CHANGE =      -8.1112E-03

 PERCENT DISCREPANCY IS DIFFERENCE BETWEEN IN-OUT MINUS CHANGE IN STORAGE
 DIVIDED BY THE AVERAGE OF IN AND OUT TIMES 100

 PERCENT DISCREPANCY =          -0.00     PERCENT DISCREPANCY =           0.00






1
  VOLUMETRIC BUDGET FOR ENTIRE MODEL AT END OF TIME STEP   30, STRESS PERIOD  30
  ------------------------------------------------------------------------------

     CUMULATIVE VOLUMES      L**3       RATES FOR THIS TIME STEP      L**3/T
     ------------------                 ------------------------

           IN:                                      IN:
           ---                                      ---
               AG WELLS  =   824204928.0000                 AG WELLS  =           7.1931
      DIVERSION SEGMENTS =           0.0000        DIVERSION SEGMENTS =           0.0000
           GW IRRIGATION =           0.0000             GW IRRIGATION =           0.0000
           SW IRRIGATION =           0.0000             SW IRRIGATION =           0.0000
        SYSTEM LOSSES GW =           0.0000          SYSTEM LOSSES GW =           0.0000
        SYSTEM LOSSES SW =           0.0000          SYSTEM LOSSES SW =           0.0000

                TOTAL IN =   824204928.0000                  TOTAL IN =           7.1931

          OUT:                                     OUT:
          ----                                     ----
               AG WELLS  =           0.0000                 AG WELLS  =           0.0000
      DIVERSION SEGMENTS =           0.0000        DIVERSION SEGMENTS =           0.0000
           GW IRRIGATION =   824204928.0000             GW IRRIGATION =           7.1931
           SW IRRIGATION =           0.0000             SW IRRIGATION =           0.0000
        SYSTEM LOSSES GW =           0.0000          SYSTEM LOSSES GW =           0.0000
        SYSTEM LOSSES SW =           0.0000          SYSTEM LOSSES SW =           0.0000

               TOTAL OUT =   824204928.0000                 TOTAL OUT =           7.1931

                IN - OUT =           0.0000                  IN - OUT =           0.0000

     PERCENT DISCREPANCY =           0.00         PERCENT DISCREPANCY =           0.00



1
  VOLUMETRIC BUDGET FOR ENTIRE MODEL AT END OF TIME STEP   30, STRESS PERIOD  30
  ------------------------------------------------------------------------------

     CUMULATIVE VOLUMES      L**3       RATES FOR THIS TIME STEP      L**3/T
     ------------------                 ------------------------

           IN:                                      IN:
           ---                                      ---
             STORAGE     =  1159775232.0000               STORAGE     =           5.8647
       CONSTANT HEAD     =           0.0000         CONSTANT HEAD     =           0.0000
     HEAD DEP BOUNDS     =    21806104.0000       HEAD DEP BOUNDS     =           0.2864
      STREAM LEAKAGE     =   939552128.0000        STREAM LEAKAGE     =          11.8895
        UZF RECHARGE     =      876037.0625          UZF RECHARGE     =       1.2176E-03
               GW ET     =           0.0000                 GW ET     =           0.0000
     SURFACE LEAKAGE     =           0.0000       SURFACE LEAKAGE     =           0.0000
           AG WELLS      =           0.0000             AG WELLS      =           0.0000

                TOTAL IN =  2122009472.0000                  TOTAL IN =          18.0418

          OUT:                                     OUT:
          ----                                     ----
             STORAGE     =   467722592.0000               STORAGE     =           0.5152
       CONSTANT HEAD     =           0.0000         CONSTANT HEAD     =           0.0000
     HEAD DEP BOUNDS     =    22390972.0000       HEAD DEP BOUNDS     =           0.2892
      STREAM LEAKAGE     =   790372416.0000        STREAM LEAKAGE     =          10.0427
        UZF RECHARGE     =           0.0000          UZF RECHARGE     =           0.0000
               GW ET     =    17319432.0000                 GW ET     =           0.0000
     SURFACE LEAKAGE     =           0.0000       SURFACE LEAKAGE     =           0.0000
           AG WELLS      =   824204928.0000             AG WELLS      =           7.1931

               TOTAL OUT =  2122010368.0000                 TOTAL OUT =          18.0403

                IN - OUT =        -896.0000                  IN - OUT =       1.5316E-03

     PERCENT DISCREPANCY =          -0.00         PERCENT DISCREPANCY =           0.01






         TIME SUMMARY AT END OF TIME STEP   30 IN STRESS PERIOD   30
                    SECONDS     MINUTES      HOURS       DAYS        YEARS
                    -----------------------------------------------------------
   TIME STEP LENGTH  87667.      1461.1      24.352      1.0147     2.77799E-03
 STRESS PERIOD TIME 2.63000E+06  43833.      730.56      30.440     8.33397E-02
         TOTAL TIME 7.63565E+07 1.27261E+06  21210.      883.76      2.4196    
1
1
                            STRESS PERIOD NO.   31, LENGTH =   2630000.    
                            -----------------------------------------------

                              NUMBER OF TIME STEPS =    30

                               MULTIPLIER FOR DELT =     1.000

                            INITIAL TIME STEP SIZE =   87666.66    

 REUSING NON-PARAMETER GHB CELLS FROM LAST STRESS PERIOD

      2 GHB CELLS

 REUSING STREAM SEGMENT DATA FROM LAST STRESS PERIOD



            AREAL INFILTRATION RATE
 READING ON UNIT   19 WITH FORMAT: (10F4.0)            

            1           2           3           4           5           6           7           8           9          10
 ........................................................................................................................
   1   1.2000E-09   0.000       0.000       0.000       0.000       0.000       0.000       0.000       0.000       0.000    
   2   2.1000E-09  2.0000E-09  8.0000E-10  8.5000E-09   0.000       0.000       0.000       0.000       0.000       0.000    
   3   5.0000E-10  1.1000E-09  8.8000E-09  5.5000E-09   0.000       0.000       0.000       0.000       0.000       0.000    
   4   8.5000E-09  1.1000E-09  1.1000E-09  1.1000E-09  2.0000E-09   0.000       0.000       0.000       0.000       0.000    
   5   8.5000E-09  1.1000E-09  1.1000E-09  1.1000E-09  1.1000E-09   0.000       0.000       0.000       0.000       0.000    
   6   8.5000E-09  5.2000E-09  2.1000E-09  1.1000E-09  1.5000E-09   0.000       0.000       0.000       0.000       0.000    
   7   8.5000E-09  5.2000E-09  2.1000E-09  1.2000E-09  2.0000E-09   0.000       0.000       0.000       0.000       0.000    
   8   5.0000E-10  5.2000E-09  2.1000E-09  1.2000E-09  5.0000E-09   0.000       0.000       0.000       0.000       0.000    
   9   5.0000E-10  5.2000E-09  2.1000E-09  1.2000E-09  5.0000E-09   0.000       0.000       0.000       0.000       0.000    
  10   5.0000E-10  5.2000E-09  2.1000E-09  1.2000E-09  5.8000E-09   0.000       0.000       0.000       0.000       0.000    
  11   1.0000E-10  1.1000E-09  1.1000E-09  1.2000E-09  5.0000E-09   0.000       0.000       0.000       0.000       0.000    
  12   1.1000E-09  1.1000E-09  1.1000E-09  1.1000E-09  2.0000E-09   0.000       0.000       0.000       0.000       0.000    
  13   1.1000E-09  2.2000E-09  2.2000E-09  2.1000E-09  1.0000E-09   0.000       0.000       0.000       0.000       0.000    
  14   2.0000E-10  5.5000E-09  5.5000E-09  5.2000E-09  1.0000E-09   0.000       0.000       0.000       0.000       0.000    
  15    0.000      8.8000E-09  8.8000E-09   0.000       0.000       0.000       0.000       0.000       0.000       0.000    

                  ET RATE =  1.500000E-07

 USING ET EXTINCTION DEPTH FROM PREVIOUS STRESS PERIOD. CURRENT PERIOD IS:      31

 USING EXTINCTION WATER CONTENT FROM PREVIOUS STRESS PERIOD. CURRENT PERIOD IS:      31

 USING AIR ENTRY PRESSURE FROM PREVIOUS STRESS PERIOD. CURRENT PERIOD IS:      31

 USING ROOT PRESSURE HEAD FROM PREVIOUS STRESS PERIOD. CURRENT PERIOD IS:      31

 USING ROOT ACTIVITY FROM PREVIOUS STRESS PERIOD. CURRENT PERIOD IS:      31

 PROCESSING AG STRESS PERIOD DATA

 READING AG STRESS PERIOD DATA

 READING IRRIGATION WELL

 END PROCESSING AG STRESS PERIOD DATA OPTIONS
 
 SOLVING FOR HEAD 
                                                   Max.-Head-Change                         Max.-Flux-Residual
  Residual-Control   Outer-Iter.   Inner-Iter.     Column Row Layer    Maximum-Head-Change  Column Row Layer    Maximum-Flux-Residual          L2-NORM 
          0                 1           2             4    7     1      -0.5643564029E-01       4    7    1        -0.2950363737E+01      0.7021703214E+01
          0                 2           2             4    7     1       0.5489623897E-02       4    7    1         0.2950347932E+00      0.7021633804E+00
          0                 3           2             4    7     1      -0.3738232804E-03       4    7    1        -0.2065245939E-01      0.4915150829E-01
          0                 4           1             4    7     1       0.1487477724E-04       4    7    1         0.8446867062E-03      0.2010299190E-02

    ------------------------------------------------
       NWT REQUIRED            4 OUTER ITERATIONS 
       AND A TOTAL OF          7 INNER ITERATIONS.
    ------------------------------------------------

 NO OUTPUT CONTROL FOR STRESS PERIOD   31   TIME STEP    1
 
 SOLVING FOR HEAD 
                                                   Max.-Head-Change                         Max.-Flux-Residual
  Residual-Control   Outer-Iter.   Inner-Iter.     Column Row Layer    Maximum-Head-Change  Column Row Layer    Maximum-Flux-Residual          L2-NORM 
          0                 1           2             4    7     1      -0.5578072951E-01       4    7    1        -0.2917428037E+01      0.6842662677E+01
          0                 2           2             4    7     1       0.5425916544E-02       4    7    1         0.2917410570E+00      0.6842597075E+00
          0                 3           2             4    7     1      -0.3694850693E-03       4    7    1        -0.2042189934E-01      0.4789824765E-01
          0                 4           1             4    7     1       0.1470215549E-04       4    7    1         0.8352567659E-03      0.1959041073E-02

    ------------------------------------------------
       NWT REQUIRED            4 OUTER ITERATIONS 
       AND A TOTAL OF          7 INNER ITERATIONS.
    ------------------------------------------------

 NO OUTPUT CONTROL FOR STRESS PERIOD   31   TIME STEP    2
 
 SOLVING FOR HEAD 
                                                   Max.-Head-Change                         Max.-Flux-Residual
  Residual-Control   Outer-Iter.   Inner-Iter.     Column Row Layer    Maximum-Head-Change  Column Row Layer    Maximum-Flux-Residual          L2-NORM 
          0                 1           2             4    7     1      -0.5540280973E-01       4    7    1        -0.2898707606E+01      0.6729262700E+01
          0                 2           2             4    7     1       0.5389153191E-02       4    7    1         0.2898688699E+00      0.6729199215E+00
          0                 3           2             4    7     1      -0.3669816414E-03       4    7    1        -0.2029084754E-01      0.4710445923E-01
          0                 4           1             4    7     1       0.1460254180E-04       4    7    1         0.8298967493E-03      0.1926575137E-02

    ------------------------------------------------
       NWT REQUIRED            4 OUTER ITERATIONS 
       AND A TOTAL OF          7 INNER ITERATIONS.
    ------------------------------------------------

 NO OUTPUT CONTROL FOR STRESS PERIOD   31   TIME STEP    3
 
 SOLVING FOR HEAD 
                                                   Max.-Head-Change                         Max.-Flux-Residual
  Residual-Control   Outer-Iter.   Inner-Iter.     Column Row Layer    Maximum-Head-Change  Column Row Layer    Maximum-Flux-Residual          L2-NORM 
          0                 1           2             4    7     1      -0.5500862863E-01       4    7    1        -0.2879051157E+01      0.6620905331E+01
          0                 2           2             4    7     1       0.5350808304E-02       4    7    1         0.2879030981E+00      0.6620843898E+00
          0                 3           2             4    7     1      -0.3643705145E-03       4    7    1        -0.2015324467E-01      0.4634596995E-01
          0                 4           1             4    7     1       0.1449864213E-04       4    7    1         0.8242687647E-03      0.1895554464E-02

    ------------------------------------------------
       NWT REQUIRED            4 OUTER ITERATIONS 
       AND A TOTAL OF          7 INNER ITERATIONS.
    ------------------------------------------------

 NO OUTPUT CONTROL FOR STRESS PERIOD   31   TIME STEP    4
 
 SOLVING FOR HEAD 
                                                   Max.-Head-Change                         Max.-Flux-Residual
  Residual-Control   Outer-Iter.   Inner-Iter.     Column Row Layer    Maximum-Head-Change  Column Row Layer    Maximum-Flux-Residual          L2-NORM 
          0                 1           2             4    7     1      -0.5460001295E-01       4    7    1        -0.2858559387E+01      0.6517262827E+01
          0                 2           2             4    7     1       0.5311059555E-02       4    7    1         0.2858538097E+00      0.6517203420E+00
          0                 3           2             4    7     1      -0.3616637875E-03       4    7    1        -0.2000979547E-01      0.4562048795E-01
          0                 4           1             4    7     1       0.1439093911E-04       4    7    1         0.8184016820E-03      0.1865880855E-02

    ------------------------------------------------
       NWT REQUIRED            4 OUTER ITERATIONS 
       AND A TOTAL OF          7 INNER ITERATIONS.
    ------------------------------------------------

 NO OUTPUT CONTROL FOR STRESS PERIOD   31   TIME STEP    5
 
 SOLVING FOR HEAD 
                                                   Max.-Head-Change                         Max.-Flux-Residual
  Residual-Control   Outer-Iter.   Inner-Iter.     Column Row Layer    Maximum-Head-Change  Column Row Layer    Maximum-Flux-Residual          L2-NORM 
          0                 1           2             4    7     1      -0.5417829166E-01       4    7    1        -0.2837305714E+01      0.6418029292E+01
          0                 2           2             4    7     1       0.5270036199E-02       4    7    1         0.2837283456E+00      0.6417971742E+00
          0                 3           2             4    7     1      -0.3588702625E-03       4    7    1        -0.1986101384E-01      0.4492586402E-01
          0                 4           1             4    7     1       0.1427978226E-04       4    7    1         0.8123164960E-03      0.1837471220E-02

    ------------------------------------------------
       NWT REQUIRED            4 OUTER ITERATIONS 
       AND A TOTAL OF          7 INNER ITERATIONS.
    ------------------------------------------------

 NO OUTPUT CONTROL FOR STRESS PERIOD   31   TIME STEP    6
 
 SOLVING FOR HEAD 
                                                   Max.-Head-Change                         Max.-Flux-Residual
  Residual-Control   Outer-Iter.   Inner-Iter.     Column Row Layer    Maximum-Head-Change  Column Row Layer    Maximum-Flux-Residual          L2-NORM 
          0                 1           2             4    7     1      -0.5374509788E-01       4    7    1        -0.2815380820E+01      0.6322923639E+01
          0                 2           2             4    7     1       0.5227897078E-02       4    7    1         0.2815357725E+00      0.6322867948E+00
          0                 3           2             4    7     1      -0.3560007562E-03       4    7    1        -0.1970753444E-01      0.4426013405E-01
          0                 4           1             4    7     1       0.1416560204E-04       4    7    1         0.8060391983E-03      0.1810241634E-02

    ------------------------------------------------
       NWT REQUIRED            4 OUTER ITERATIONS 
       AND A TOTAL OF          7 INNER ITERATIONS.
    ------------------------------------------------

 NO OUTPUT CONTROL FOR STRESS PERIOD   31   TIME STEP    7
 
 SOLVING FOR HEAD 
                                                   Max.-Head-Change                         Max.-Flux-Residual
  Residual-Control   Outer-Iter.   Inner-Iter.     Column Row Layer    Maximum-Head-Change  Column Row Layer    Maximum-Flux-Residual          L2-NORM 
          0                 1           2             4    7     1      -0.5330170219E-01       4    7    1        -0.2792854709E+01      0.6231690080E+01
          0                 2           2             4    7     1       0.5184765768E-02       4    7    1         0.2792830902E+00      0.6231636138E+00
          0                 3           2             4    7     1      -0.3530636836E-03       4    7    1        -0.1954984728E-01      0.4362151004E-01
          0                 4           1             4    7     1       0.1404873279E-04       4    7    1         0.7995897745E-03      0.1784121579E-02

    ------------------------------------------------
       NWT REQUIRED            4 OUTER ITERATIONS 
       AND A TOTAL OF          7 INNER ITERATIONS.
    ------------------------------------------------

 NO OUTPUT CONTROL FOR STRESS PERIOD   31   TIME STEP    8
 
 SOLVING FOR HEAD 
                                                   Max.-Head-Change                         Max.-Flux-Residual
  Residual-Control   Outer-Iter.   Inner-Iter.     Column Row Layer    Maximum-Head-Change  Column Row Layer    Maximum-Flux-Residual          L2-NORM 
          0                 1           2             4    7     1      -0.5284954128E-01       4    7    1        -0.2769807216E+01      0.6144086522E+01
          0                 2           2             4    7     1       0.5140782005E-02       4    7    1         0.2769782808E+00      0.6144034246E+00
          0                 3           2             4    7     1      -0.3500685607E-03       4    7    1        -0.1938851113E-01      0.4300829383E-01
          0                 4           1             4    7     1       0.1392955408E-04       4    7    1         0.7929911087E-03      0.1759044418E-02

    ------------------------------------------------
       NWT REQUIRED            4 OUTER ITERATIONS 
       AND A TOTAL OF          7 INNER ITERATIONS.
    ------------------------------------------------

 NO OUTPUT CONTROL FOR STRESS PERIOD   31   TIME STEP    9
 
 SOLVING FOR HEAD 
                                                   Max.-Head-Change                         Max.-Flux-Residual
  Residual-Control   Outer-Iter.   Inner-Iter.     Column Row Layer    Maximum-Head-Change  Column Row Layer    Maximum-Flux-Residual          L2-NORM 
          0                 1           2             4    7     1      -0.5238970831E-01       4    7    1        -0.2746299118E+01      0.6059888439E+01
          0                 2           2             4    7     1       0.5096053123E-02       4    7    1         0.2746274213E+00      0.6060757614E+00
          0                 3           2             4    7     1      -0.3470226893E-03       4    7    1        -0.1922395137E-01      0.4242533696E-01
          0                 4           1             4    7     1       0.1380835580E-04       4    7    1         0.7862605878E-03      0.1735198339E-02

    ------------------------------------------------
       NWT REQUIRED            4 OUTER ITERATIONS 
       AND A TOTAL OF          7 INNER ITERATIONS.
    ------------------------------------------------

 NO OUTPUT CONTROL FOR STRESS PERIOD   31   TIME STEP   10
 
 SOLVING FOR HEAD 
                                                   Max.-Head-Change                         Max.-Flux-Residual
  Residual-Control   Outer-Iter.   Inner-Iter.     Column Row Layer    Maximum-Head-Change  Column Row Layer    Maximum-Flux-Residual          L2-NORM 
          0                 1           2             4    7     1      -0.5192346115E-01       4    7    1        -0.2722400993E+01      0.5978878653E+01
          0                 2           2             4    7     1       0.5050699084E-02       4    7    1         0.2722375684E+00      0.5978848228E+00
          0                 3           2             4    7     1      -0.3439342530E-03       4    7    1        -0.1905666196E-01      0.4185196956E-01
          0                 4           1             4    7     1       0.1368546400E-04       4    7    1         0.7794184455E-03      0.1711746518E-02

    ------------------------------------------------
       NWT REQUIRED            4 OUTER ITERATIONS 
       AND A TOTAL OF          7 INNER ITERATIONS.
    ------------------------------------------------

 NO OUTPUT CONTROL FOR STRESS PERIOD   31   TIME STEP   11
 
 SOLVING FOR HEAD 
                                                   Max.-Head-Change                         Max.-Flux-Residual
  Residual-Control   Outer-Iter.   Inner-Iter.     Column Row Layer    Maximum-Head-Change  Column Row Layer    Maximum-Flux-Residual          L2-NORM 
          0                 1           2             4    7     1      -0.5145156783E-01       4    7    1        -0.2698156191E+01      0.5900346871E+01
          0                 2           2             4    7     1       0.5004796271E-02       4    7    1         0.2698130564E+00      0.5900316644E+00
          0                 3           2             4    7     1      -0.3408084467E-03       4    7    1        -0.1888694636E-01      0.4130224876E-01
          0                 4           1             4    7     1       0.1356108555E-04       4    7    1         0.7724770880E-03      0.1689264094E-02

    ------------------------------------------------
       NWT REQUIRED            4 OUTER ITERATIONS 
       AND A TOTAL OF          7 INNER ITERATIONS.
    ------------------------------------------------

 NO OUTPUT CONTROL FOR STRESS PERIOD   31   TIME STEP   12
 
 SOLVING FOR HEAD 
                                                   Max.-Head-Change                         Max.-Flux-Residual
  Residual-Control   Outer-Iter.   Inner-Iter.     Column Row Layer    Maximum-Head-Change  Column Row Layer    Maximum-Flux-Residual          L2-NORM 
          0                 1           2             4    7     1      -0.5097515360E-01       4    7    1        -0.2673626682E+01      0.5824717720E+01
          0                 2           2             4    7     1       0.4958453812E-02       4    7    1         0.2673600814E+00      0.5824687691E+00
          0                 3           2             4    7     1      -0.3376527000E-03       4    7    1        -0.1871523825E-01      0.4077284599E-01
          0                 4           1             4    7     1       0.1343551519E-04       4    7    1         0.7654541962E-03      0.1667610851E-02

    ------------------------------------------------
       NWT REQUIRED            4 OUTER ITERATIONS 
       AND A TOTAL OF          7 INNER ITERATIONS.
    ------------------------------------------------

 NO OUTPUT CONTROL FOR STRESS PERIOD   31   TIME STEP   13
 
 SOLVING FOR HEAD 
                                                   Max.-Head-Change                         Max.-Flux-Residual
  Residual-Control   Outer-Iter.   Inner-Iter.     Column Row Layer    Maximum-Head-Change  Column Row Layer    Maximum-Flux-Residual          L2-NORM 
          0                 1           2             4    7     1      -0.5049526301E-01       4    7    1        -0.2648870584E+01      0.5751828580E+01
          0                 2           2             4    7     1       0.4911773303E-02       4    7    1         0.2648844547E+00      0.5751798838E+00
          0                 3           2             4    7     1      -0.3344739330E-03       4    7    1        -0.1854194449E-01      0.4026262096E-01
          0                 4           1             4    7     1       0.1330902910E-04       4    7    1         0.7583664740E-03      0.1646744642E-02

    ------------------------------------------------
       NWT REQUIRED            4 OUTER ITERATIONS 
       AND A TOTAL OF          7 INNER ITERATIONS.
    ------------------------------------------------

 NO OUTPUT CONTROL FOR STRESS PERIOD   31   TIME STEP   14
 
 SOLVING FOR HEAD 
                                                   Max.-Head-Change                         Max.-Flux-Residual
  Residual-Control   Outer-Iter.   Inner-Iter.     Column Row Layer    Maximum-Head-Change  Column Row Layer    Maximum-Flux-Residual          L2-NORM 
          0                 1           2             4    7     1      -0.5001246136E-01       4    7    1        -0.2623920067E+01      0.5681504001E+01
          0                 2           2             4    7     1       0.4864809722E-02       4    7    1         0.2623893925E+00      0.5681474518E+00
          0                 3           2             4    7     1      -0.3312758884E-03       4    7    1        -0.1836729015E-01      0.3977034880E-01
          0                 4           1             4    7     1       0.1318177614E-04       4    7    1         0.7512230927E-03      0.1626613502E-02

    ------------------------------------------------
       NWT REQUIRED            4 OUTER ITERATIONS 
       AND A TOTAL OF          7 INNER ITERATIONS.
    ------------------------------------------------

 NO OUTPUT CONTROL FOR STRESS PERIOD   31   TIME STEP   15
 
 SOLVING FOR HEAD 
                                                   Max.-Head-Change                         Max.-Flux-Residual
  Residual-Control   Outer-Iter.   Inner-Iter.     Column Row Layer    Maximum-Head-Change  Column Row Layer    Maximum-Flux-Residual          L2-NORM 
          0                 1           2             4    7     1      -0.4952767947E-01       4    7    1        -0.2598826670E+01      0.5613618528E+01
          0                 2           2             4    7     1       0.4817653604E-02       4    7    1         0.2598800482E+00      0.5613589402E+00
          0                 3           2             4    7     1      -0.3280647321E-03       4    7    1        -0.1819163600E-01      0.3929515764E-01
          0                 4           1             4    7     1       0.1305400085E-04       4    7    1         0.7440388310E-03      0.1607174261E-02

    ------------------------------------------------
       NWT REQUIRED            4 OUTER ITERATIONS 
       AND A TOTAL OF          7 INNER ITERATIONS.
    ------------------------------------------------

 NO OUTPUT CONTROL FOR STRESS PERIOD   31   TIME STEP   16
 
 SOLVING FOR HEAD 
                                                   Max.-Head-Change                         Max.-Flux-Residual
  Residual-Control   Outer-Iter.   Inner-Iter.     Column Row Layer    Maximum-Head-Change  Column Row Layer    Maximum-Flux-Residual          L2-NORM 
          0                 1           2             4    7     1      -0.4904149559E-01       4    7    1        -0.2573623045E+01      0.5548029070E+01
          0                 2           2             4    7     1       0.4770361191E-02       4    7    1         0.2573596865E+00      0.5548000315E+00
          0                 3           2             4    7     1      -0.3248442936E-03       4    7    1        -0.1801521059E-01      0.3883603261E-01
          0                 4           1             4    7     1       0.1292585693E-04       4    7    1         0.7368230297E-03      0.1588397562E-02

    ------------------------------------------------
       NWT REQUIRED            4 OUTER ITERATIONS 
       AND A TOTAL OF          7 INNER ITERATIONS.
    ------------------------------------------------

 NO OUTPUT CONTROL FOR STRESS PERIOD   31   TIME STEP   17
 
 SOLVING FOR HEAD 
                                                   Max.-Head-Change                         Max.-Flux-Residual
  Residual-Control   Outer-Iter.   Inner-Iter.     Column Row Layer    Maximum-Head-Change  Column Row Layer    Maximum-Flux-Residual          L2-NORM 
          0                 1           2             4    7     1      -0.4855486676E-01       4    7    1        -0.2548362588E+01      0.5484620809E+01
          0                 2           2             4    7     1       0.4723025565E-02       4    7    1         0.2548336463E+00      0.5484592542E+00
          0                 3           2             4    7     1      -0.3216209127E-03       4    7    1        -0.1783838767E-01      0.3839218619E-01
          0                 4           1             4    7     1       0.1279759557E-04       4    7    1         0.7295909675E-03      0.1570241589E-02

    ------------------------------------------------
       NWT REQUIRED            4 OUTER ITERATIONS 
       AND A TOTAL OF          7 INNER ITERATIONS.
    ------------------------------------------------

 NO OUTPUT CONTROL FOR STRESS PERIOD   31   TIME STEP   18
 
 SOLVING FOR HEAD 
                                                   Max.-Head-Change                         Max.-Flux-Residual
  Residual-Control   Outer-Iter.   Inner-Iter.     Column Row Layer    Maximum-Head-Change  Column Row Layer    Maximum-Flux-Residual          L2-NORM 
          0                 1           2             4    7     1      -0.4806812766E-01       4    7    1        -0.2523064181E+01      0.5423281024E+01
          0                 2           2             4    7     1       0.4675679278E-02       4    7    1         0.2523038154E+00      0.5423253067E+00
          0                 3           2             4    7     1      -0.3183968044E-03       4    7    1        -0.1766129935E-01      0.3796279961E-01
          0                 4           1             4    7     1       0.1266930497E-04       4    7    1         0.7223480268E-03      0.1552679731E-02

    ------------------------------------------------
       NWT REQUIRED            4 OUTER ITERATIONS 
       AND A TOTAL OF          7 INNER ITERATIONS.
    ------------------------------------------------

 NO OUTPUT CONTROL FOR STRESS PERIOD   31   TIME STEP   19
 
 SOLVING FOR HEAD 
                                                   Max.-Head-Change                         Max.-Flux-Residual
  Residual-Control   Outer-Iter.   Inner-Iter.     Column Row Layer    Maximum-Head-Change  Column Row Layer    Maximum-Flux-Residual          L2-NORM 
          0                 1           2             4    7     1      -0.4758198768E-01       4    7    1        -0.2497767872E+01      0.5363900114E+01
          0                 2           2             4    7     1       0.4628391324E-02       4    7    1         0.2497741983E+00      0.5363872554E+00
          0                 3           2             4    7     1      -0.3151766680E-03       4    7    1        -0.1748422593E-01      0.3754713544E-01
          0                 4           1             4    7     1       0.1254117279E-04       4    7    1         0.7151057246E-03      0.1535678531E-02

    ------------------------------------------------
       NWT REQUIRED            4 OUTER ITERATIONS 
       AND A TOTAL OF          7 INNER ITERATIONS.
    ------------------------------------------------

 NO OUTPUT CONTROL FOR STRESS PERIOD   31   TIME STEP   20
 
 SOLVING FOR HEAD 
                                                   Max.-Head-Change                         Max.-Flux-Residual
  Residual-Control   Outer-Iter.   Inner-Iter.     Column Row Layer    Maximum-Head-Change  Column Row Layer    Maximum-Flux-Residual          L2-NORM 
          0                 1           2             4    7     1      -0.4709697401E-01       4    7    1        -0.2472503118E+01      0.5306386901E+01
          0                 2           2             4    7     1       0.4581212981E-02       4    7    1         0.2472477400E+00      0.5306359819E+00
          0                 3           2             4    7     1      -0.3119639950E-03       4    7    1        -0.1730737362E-01      0.3714454803E-01
          0                 4           1             4    7     1       0.1241333740E-04       4    7    1         0.7078724400E-03      0.1519213999E-02

    ------------------------------------------------
       NWT REQUIRED            4 OUTER ITERATIONS 
       AND A TOTAL OF          7 INNER ITERATIONS.
    ------------------------------------------------

 NO OUTPUT CONTROL FOR STRESS PERIOD   31   TIME STEP   21
 
 SOLVING FOR HEAD 
                                                   Max.-Head-Change                         Max.-Flux-Residual
  Residual-Control   Outer-Iter.   Inner-Iter.     Column Row Layer    Maximum-Head-Change  Column Row Layer    Maximum-Flux-Residual          L2-NORM 
          0                 1           2             4    7     1      -0.4661343270E-01       4    7    1        -0.2447289928E+01      0.5250637506E+01
          0                 2           2             4    7     1       0.4534177904E-02       4    7    1         0.2447264412E+00      0.5250610827E+00
          0                 3           2             4    7     1      -0.3087610778E-03       4    7    1        -0.1713088244E-01      0.3675430207E-01
          0                 4           1             4    7     1       0.1228589069E-04       4    7    1         0.7006539527E-03      0.1503253981E-02

    ------------------------------------------------
       NWT REQUIRED            4 OUTER ITERATIONS 
       AND A TOTAL OF          7 INNER ITERATIONS.
    ------------------------------------------------

 NO OUTPUT CONTROL FOR STRESS PERIOD   31   TIME STEP   22
 
 SOLVING FOR HEAD 
                                                   Max.-Head-Change                         Max.-Flux-Residual
  Residual-Control   Outer-Iter.   Inner-Iter.     Column Row Layer    Maximum-Head-Change  Column Row Layer    Maximum-Flux-Residual          L2-NORM 
          0                 1           2             4    7     1      -0.4613193042E-01       4    7    1        -0.2422160178E+01      0.5196573705E+01
          0                 2           2             4    7     1       0.4487341209E-02       4    7    1         0.2422134892E+00      0.5196547470E+00
          0                 3           2             4    7     1      -0.3055716690E-03       4    7    1        -0.1695497550E-01      0.3637585694E-01
          0                 4           1             4    7     1       0.1215898093E-04       4    7    1         0.6934593525E-03      0.1487780460E-02

    ------------------------------------------------
       NWT REQUIRED            4 OUTER ITERATIONS 
       AND A TOTAL OF          7 INNER ITERATIONS.
    ------------------------------------------------

 NO OUTPUT CONTROL FOR STRESS PERIOD   31   TIME STEP   23
 
 SOLVING FOR HEAD 
                                                   Max.-Head-Change                         Max.-Flux-Residual
  Residual-Control   Outer-Iter.   Inner-Iter.     Column Row Layer    Maximum-Head-Change  Column Row Layer    Maximum-Flux-Residual          L2-NORM 
          0                 1           2             4    7     1      -0.4565301464E-01       4    7    1        -0.2397144201E+01      0.5144134868E+01
          0                 2           2             4    7     1       0.4440756146E-02       4    7    1         0.2397119170E+00      0.5144109097E+00
          0                 3           2             4    7     1      -0.3023993955E-03       4    7    1        -0.1677986514E-01      0.3600879005E-01
          0                 4           1             4    7     1       0.1203275353E-04       4    7    1         0.6862973330E-03      0.1472761256E-02

    ------------------------------------------------
       NWT REQUIRED            4 OUTER ITERATIONS 
       AND A TOTAL OF          7 INNER ITERATIONS.
    ------------------------------------------------

 NO OUTPUT CONTROL FOR STRESS PERIOD   31   TIME STEP   24
 
 SOLVING FOR HEAD 
                                                   Max.-Head-Change                         Max.-Flux-Residual
  Residual-Control   Outer-Iter.   Inner-Iter.     Column Row Layer    Maximum-Head-Change  Column Row Layer    Maximum-Flux-Residual          L2-NORM 
          0                 1           2             4    7     1      -0.4517677087E-01       4    7    1        -0.2372247940E+01      0.5093218703E+01
          0                 2           2             4    7     1       0.4394431028E-02       4    7    1         0.2372223184E+00      0.5093193413E+00
          0                 3           2             4    7     1      -0.2992448224E-03       4    7    1        -0.1660559289E-01      0.3565238043E-01
          0                 4           1             4    7     1       0.1190723025E-04       4    7    1         0.6791695969E-03      0.1458185098E-02

    ------------------------------------------------
       NWT REQUIRED            4 OUTER ITERATIONS 
       AND A TOTAL OF          7 INNER ITERATIONS.
    ------------------------------------------------

 NO OUTPUT CONTROL FOR STRESS PERIOD   31   TIME STEP   25
 
 SOLVING FOR HEAD 
                                                   Max.-Head-Change                         Max.-Flux-Residual
  Residual-Control   Outer-Iter.   Inner-Iter.     Column Row Layer    Maximum-Head-Change  Column Row Layer    Maximum-Flux-Residual          L2-NORM 
          0                 1           2             4    7     1      -0.4470353257E-01       4    7    1        -0.2347490235E+01      0.5043770478E+01
          0                 2           2             4    7     1       0.4348398287E-02       4    7    1         0.2347465774E+00      0.5043745576E+00
          0                 3           2             4    7     1      -0.2961101588E-03       4    7    1        -0.1643229066E-01      0.3530624337E-01
          0                 4           1             4    7     1       0.1178249871E-04       4    7    1         0.6720815129E-03      0.1444027372E-02

    ------------------------------------------------
       NWT REQUIRED            4 OUTER ITERATIONS 
       AND A TOTAL OF          7 INNER ITERATIONS.
    ------------------------------------------------

 NO OUTPUT CONTROL FOR STRESS PERIOD   31   TIME STEP   26
 
 SOLVING FOR HEAD 
                                                   Max.-Head-Change                         Max.-Flux-Residual
  Residual-Control   Outer-Iter.   Inner-Iter.     Column Row Layer    Maximum-Head-Change  Column Row Layer    Maximum-Flux-Residual          L2-NORM 
          0                 1           2             4    7     1      -0.4423387485E-01       4    7    1        -0.2322903256E+01      0.4995728047E+01
          0                 2           2             4    7     1       0.4302713862E-02       4    7    1         0.2322879105E+00      0.4995703672E+00
          0                 3           2             4    7     1      -0.2929992143E-03       4    7    1        -0.1626018361E-01      0.3496995148E-01
          0                 4           1             4    7     1       0.1165871133E-04       4    7    1         0.6650423315E-03      0.1430272874E-02

    ------------------------------------------------
       NWT REQUIRED            4 OUTER ITERATIONS 
       AND A TOTAL OF          7 INNER ITERATIONS.
    ------------------------------------------------

 NO OUTPUT CONTROL FOR STRESS PERIOD   31   TIME STEP   27
 
 SOLVING FOR HEAD 
                                                   Max.-Head-Change                         Max.-Flux-Residual
  Residual-Control   Outer-Iter.   Inner-Iter.     Column Row Layer    Maximum-Head-Change  Column Row Layer    Maximum-Flux-Residual          L2-NORM 
          0                 1           2             4    7     1      -0.4376792997E-01       4    7    1        -0.2298495096E+01      0.4949023012E+01
          0                 2           2             4    7     1       0.4257390615E-02       4    7    1         0.2298471270E+00      0.4948999105E+00
          0                 3           2             4    7     1      -0.2899128648E-03       4    7    1        -0.1608932839E-01      0.3464301976E-01
          0                 4           1             4    7     1       0.1153590276E-04       4    7    1         0.6580543445E-03      0.1416902466E-02

    ------------------------------------------------
       NWT REQUIRED            4 OUTER ITERATIONS 
       AND A TOTAL OF          7 INNER ITERATIONS.
    ------------------------------------------------

 NO OUTPUT CONTROL FOR STRESS PERIOD   31   TIME STEP   28
 
 SOLVING FOR HEAD 
                                                   Max.-Head-Change                         Max.-Flux-Residual
  Residual-Control   Outer-Iter.   Inner-Iter.     Column Row Layer    Maximum-Head-Change  Column Row Layer    Maximum-Flux-Residual          L2-NORM 
          0                 1           2             4    7     1      -0.4330593548E-01       4    7    1        -0.2274279458E+01      0.4903605940E+01
          0                 2           2             4    7     1       0.4212451651E-02       4    7    1         0.2274255968E+00      0.4903582462E+00
          0                 3           2             4    7     1      -0.2868526829E-03       4    7    1        -0.1591982088E-01      0.3432510027E-01
          0                 4           1             4    7     1       0.1141413517E-04       4    7    1         0.6511214799E-03      0.1403898424E-02

    ------------------------------------------------
       NWT REQUIRED            4 OUTER ITERATIONS 
       AND A TOTAL OF          7 INNER ITERATIONS.
    ------------------------------------------------

 NO OUTPUT CONTROL FOR STRESS PERIOD   31   TIME STEP   29
 
 SOLVING FOR HEAD 
                                                   Max.-Head-Change                         Max.-Flux-Residual
  Residual-Control   Outer-Iter.   Inner-Iter.     Column Row Layer    Maximum-Head-Change  Column Row Layer    Maximum-Flux-Residual          L2-NORM 
          0                 1           2             4    7     1      -0.4284811025E-01       4    7    1        -0.2250268898E+01      0.4859422539E+01
          0                 2           2             4    7     1       0.4167918256E-02       4    7    1         0.2250245753E+00      0.4859399510E+00
          0                 3           2             4    7     1      -0.2838201186E-03       4    7    1        -0.1575174897E-01      0.3401581889E-01
          0                 4           1             4    7     1       0.1129346683E-04       4    7    1         0.6442473243E-03      0.1391248554E-02

    ------------------------------------------------
       NWT REQUIRED            4 OUTER ITERATIONS 
       AND A TOTAL OF          7 INNER ITERATIONS.
    ------------------------------------------------

 NO OUTPUT CONTROL FOR STRESS PERIOD   31   TIME STEP   30



 STREAM LISTING     PERIOD     31   STEP       30

 LAYER ROW COL. STREAM  RCH.  FLOW INTO     FLOW TO   FLOW OUT OF   OVRLND.     DIRECT     STREAM       STREAM     STREAM     STREAM   STREAMBED  STREAMBED
                SEG.NO.  NO.  STRM. RCH.    AQUIFER    STRM. RCH.    RUNOFF     PRECIP       ET          HEAD       DEPTH      WIDTH   CONDCTNC.   GRADIENT

   1    1    1     1     1    1.9000E+01  2.1427E-01   1.8786E+01  0.000E+00  0.000E+00  0.000E+00  1.09413E+03  1.082E+00  1.166E+01  5.249E-02  1.361E+00
   1    2    2     1     2    1.8786E+01  3.3054E-01   1.8455E+01  0.000E+00  0.000E+00  0.000E+00  1.08914E+03  1.077E+00  1.158E+01  8.107E-02  1.359E+00
   1    3    3     1     3    1.8455E+01  2.8064E-01   1.8175E+01  0.000E+00  0.000E+00  0.000E+00  1.08349E+03  1.072E+00  1.149E+01  6.892E-02  1.357E+00
   1    3    4     1     4    1.8175E+01  2.5740E-01   1.7917E+01  0.000E+00  0.000E+00  0.000E+00  1.07848E+03  1.068E+00  1.140E+01  6.328E-02  1.356E+00
   1    4    5     2     1    1.5917E+01  3.0542E-01   1.5612E+01  0.000E+00  0.000E+00  0.000E+00  1.07285E+03  9.157E-01  1.200E+01  7.800E-02  1.305E+00
   1    5    6     2     2    1.5612E+01  2.3438E-01   1.5377E+01  0.000E+00  0.000E+00  0.000E+00  1.06742E+03  9.063E-01  1.200E+01  6.000E-02  1.302E+00
   1    6    6     2     3    1.5377E+01  2.3388E-01   1.5143E+01  0.000E+00  0.000E+00  0.000E+00  1.06269E+03  8.980E-01  1.200E+01  6.000E-02  1.299E+00
   1    7    6     2     4    1.5143E+01  2.3338E-01   1.4910E+01  0.000E+00  0.000E+00  0.000E+00  1.05797E+03  8.897E-01  1.200E+01  6.000E-02  1.297E+00
   1    8    6     2     5    1.4910E+01  2.3289E-01   1.4677E+01  0.000E+00  0.000E+00  0.000E+00  1.05324E+03  8.814E-01  1.200E+01  6.000E-02  1.294E+00
   1    3    5     3     1    2.0000E+00  2.8252E-01   1.7175E+00  0.000E+00  0.000E+00  0.000E+00  1.07555E+03  1.909E+00  9.636E+00  7.227E-02  1.955E+00
   1    3    6     3     2    1.7175E+00  2.4905E-01   1.4684E+00  0.000E+00  0.000E+00  0.000E+00  1.07264E+03  1.727E+00  8.909E+00  6.682E-02  1.864E+00
   1    3    7     3     3    1.4684E+00  1.9718E-01   1.2712E+00  0.000E+00  0.000E+00  0.000E+00  1.06987E+03  1.555E+00  8.218E+00  5.547E-02  1.777E+00
   1    4    8     3     4    1.2712E+00  2.2567E-01   1.0456E+00  0.000E+00  0.000E+00  0.000E+00  1.06682E+03  1.364E+00  7.455E+00  6.709E-02  1.682E+00
   1    5    8     3     5    1.0456E+00  1.5790E-01   8.8768E-01  0.000E+00  0.000E+00  0.000E+00  1.06362E+03  1.164E+00  6.655E+00  4.991E-02  1.582E+00
   1    6    8     3     6    8.8768E-01  5.5980E-02   8.3170E-01  0.000E+00  0.000E+00  0.000E+00  1.06158E+03  1.036E+00  6.145E+00  1.844E-02  1.518E+00
   1    5   10     4     1    1.0000E+01  9.0919E-02   9.9091E+00  0.000E+00  0.000E+00  0.000E+00  1.07836E+03  6.368E-01  1.000E+01  2.500E-02  1.212E+00
   1    5    9     4     2    9.9091E+00  1.8158E-01   9.7275E+00  0.000E+00  0.000E+00  0.000E+00  1.07154E+03  6.315E-01  1.000E+01  5.000E-02  1.211E+00
   1    6    8     4     3    9.7275E+00  1.2689E-01   9.6006E+00  0.000E+00  0.000E+00  0.000E+00  1.06381E+03  6.256E-01  1.000E+01  3.500E-02  1.209E+00
   1    6    8     5     1    1.0432E+01  2.2686E-01   1.0205E+01  0.000E+00  0.000E+00  0.000E+00  1.05868E+03  6.790E-01  1.542E+01  6.166E-02  1.226E+00
   1    7    7     5     2    1.0205E+01  2.7894E-01   9.9265E+00  0.000E+00  0.000E+00  0.000E+00  1.05417E+03  6.732E-01  1.519E+01  7.594E-02  1.224E+00
   1    8    7     5     3    9.9265E+00  1.9221E-01   9.7343E+00  0.000E+00  0.000E+00  0.000E+00  1.04992E+03  6.676E-01  1.497E+01  5.241E-02  1.223E+00
   1    8    6     5     4    9.7343E+00  1.3577E-01   9.5985E+00  0.000E+00  0.000E+00  0.000E+00  1.04691E+03  6.637E-01  1.482E+01  3.706E-02  1.221E+00
   1    9    6     6     1    2.4276E+01  2.5176E-01   2.4024E+01  0.000E+00  0.000E+00  0.000E+00  1.04392E+03  1.196E+00  1.200E+01  6.000E-02  1.399E+00
   1   10    7     6     2    2.4024E+01  2.5131E-01   2.3773E+01  0.000E+00  0.000E+00  0.000E+00  1.03937E+03  1.188E+00  1.200E+01  6.000E-02  1.396E+00
   1   11    7     6     3    2.3773E+01  2.5086E-01   2.3522E+01  0.000E+00  0.000E+00  0.000E+00  1.03482E+03  1.181E+00  1.200E+01  6.000E-02  1.394E+00
   1   12    7     6     4    2.3522E+01  2.5041E-01   2.3271E+01  0.000E+00  0.000E+00  0.000E+00  1.03026E+03  1.173E+00  1.200E+01  6.000E-02  1.391E+00
   1   13    7     6     5    2.3271E+01  6.1817E-03   2.3265E+01  0.000E+00  0.000E+00  0.000E+00  1.02708E+03  1.170E+00  1.200E+01  2.400E-02  8.586E-02
   1   14    9     7     1    1.5000E+02  1.3472E+00   1.4865E+02  0.000E+00  0.000E+00  0.000E+00  1.03987E+03  2.288E+00  5.529E+01  5.593E-01  8.029E-01
   1   13    8     7     2    1.4865E+02  1.9012E+00   1.4675E+02  0.000E+00  0.000E+00  0.000E+00  1.03478E+03  2.279E+00  5.526E+01  6.148E-01  1.031E+00
   1   13    7     7     3    1.4675E+02  1.6015E+00   1.4515E+02  0.000E+00  0.000E+00  0.000E+00  1.02969E+03  2.270E+00  5.521E+01  5.584E-01  9.560E-01
   1   13    6     8     1    1.6842E+02  1.0441E+00   1.6737E+02  0.000E+00  0.000E+00  0.000E+00  1.02481E+03  2.938E+00  4.261E+01  4.342E-01  8.016E-01
   1   13    5     8     2    1.6737E+02  2.9093E-01   1.6708E+02  0.000E+00  0.000E+00  0.000E+00  1.01856E+03  2.934E+00  4.254E+01  4.335E-01  2.237E-01
   1   13    4     8     3    1.6708E+02 -2.0499E+00   1.6913E+02  0.000E+00  0.000E+00  0.000E+00  1.01231E+03  2.940E+00  4.263E+01  4.344E+00 -1.573E-01
   1   13    3     8     4    1.6913E+02 -3.4608E+00   1.7259E+02  0.000E+00  0.000E+00  0.000E+00  1.00608E+03  2.958E+00  4.289E+01  4.370E+00 -2.640E-01
   1   13    2     8     5    1.7259E+02 -2.5330E+00   1.7512E+02  0.000E+00  0.000E+00  0.000E+00  9.99852E+02  2.977E+00  4.317E+01  4.399E+00 -1.919E-01
   1   13    1     8     6    1.7512E+02 -1.9722E+00   1.7710E+02  0.000E+00  0.000E+00  0.000E+00  9.94867E+02  2.992E+00  4.338E+01  2.652E+00 -2.479E-01





UNSATURATED ZONE PACKAGE VOLUMETRIC BUDGET FOR  TIME STEP    30 STRESS PERIOD   31
  ------------------------------------------------------------------------------



     CUMULATIVE VOLUMES      L**3       RATES FOR THIS TIME STEP      L**3/T
     ------------------                 ------------------------

           IN:                                      IN:
           ---                                      ---
        INFILTRATION =  1230200511.1511          INFILTRATION =          26.5583

          OUT:                                     OUT:
          ----                                     ----
              UZF ET =  1137999141.7128                UZF ET =          26.6075
        UZF RECHARGE =      879805.6028          UZF RECHARGE =           0.0015

            IN - OUT =    91321563.8356              IN - OUT =      -5.0779E-02

          STORAGE:                                 STORAGE:
          --------                                 --------
      STORAGE CHANGE =    91323205.8459        STORAGE CHANGE =      -5.0780E-02

 PERCENT DISCREPANCY IS DIFFERENCE BETWEEN IN-OUT MINUS CHANGE IN STORAGE
 DIVIDED BY THE AVERAGE OF IN AND OUT TIMES 100

 PERCENT DISCREPANCY =          -0.00     PERCENT DISCREPANCY =           0.00






1
  VOLUMETRIC BUDGET FOR ENTIRE MODEL AT END OF TIME STEP   30, STRESS PERIOD  31
  ------------------------------------------------------------------------------

     CUMULATIVE VOLUMES      L**3       RATES FOR THIS TIME STEP      L**3/T
     ------------------                 ------------------------

           IN:                                      IN:
           ---                                      ---
               AG WELLS  =   882375808.0000                 AG WELLS  =          22.1508
      DIVERSION SEGMENTS =           0.0000        DIVERSION SEGMENTS =           0.0000
           GW IRRIGATION =           0.0000             GW IRRIGATION =           0.0000
           SW IRRIGATION =           0.0000             SW IRRIGATION =           0.0000
        SYSTEM LOSSES GW =           0.0000          SYSTEM LOSSES GW =           0.0000
        SYSTEM LOSSES SW =           0.0000          SYSTEM LOSSES SW =           0.0000

                TOTAL IN =   882375808.0000                  TOTAL IN =          22.1508

          OUT:                                     OUT:
          ----                                     ----
               AG WELLS  =           0.0000                 AG WELLS  =           0.0000
      DIVERSION SEGMENTS =           0.0000        DIVERSION SEGMENTS =           0.0000
           GW IRRIGATION =   882375808.0000             GW IRRIGATION =          22.1508
           SW IRRIGATION =           0.0000             SW IRRIGATION =           0.0000
        SYSTEM LOSSES GW =           0.0000          SYSTEM LOSSES GW =           0.0000
        SYSTEM LOSSES SW =           0.0000          SYSTEM LOSSES SW =           0.0000

               TOTAL OUT =   882375808.0000                 TOTAL OUT =          22.1508

                IN - OUT =           0.0000                  IN - OUT =           0.0000

     PERCENT DISCREPANCY =           0.00         PERCENT DISCREPANCY =           0.00



1
  VOLUMETRIC BUDGET FOR ENTIRE MODEL AT END OF TIME STEP   30, STRESS PERIOD  31
  ------------------------------------------------------------------------------

     CUMULATIVE VOLUMES      L**3       RATES FOR THIS TIME STEP      L**3/T
     ------------------                 ------------------------

           IN:                                      IN:
           ---                                      ---
             STORAGE     =  1213419264.0000               STORAGE     =          20.3252
       CONSTANT HEAD     =           0.0000         CONSTANT HEAD     =           0.0000
     HEAD DEP BOUNDS     =    22559522.0000       HEAD DEP BOUNDS     =           0.2865
      STREAM LEAKAGE     =   970863936.0000        STREAM LEAKAGE     =          11.9197
        UZF RECHARGE     =      879805.5625          UZF RECHARGE     =       1.5470E-03
               GW ET     =           0.0000                 GW ET     =           0.0000
     SURFACE LEAKAGE     =           0.0000       SURFACE LEAKAGE     =           0.0000
           AG WELLS      =           0.0000             AG WELLS      =           0.0000

                TOTAL IN =  2207722496.0000                  TOTAL IN =          32.5330

          OUT:                                     OUT:
          ----                                     ----
             STORAGE     =   468130176.0000               STORAGE     =       7.7371E-02
       CONSTANT HEAD     =           0.0000         CONSTANT HEAD     =           0.0000
     HEAD DEP BOUNDS     =    23151566.0000       HEAD DEP BOUNDS     =           0.2892
      STREAM LEAKAGE     =   816746304.0000        STREAM LEAKAGE     =          10.0158
        UZF RECHARGE     =           0.0000          UZF RECHARGE     =           0.0000
               GW ET     =    17319432.0000                 GW ET     =           0.0000
     SURFACE LEAKAGE     =           0.0000       SURFACE LEAKAGE     =           0.0000
           AG WELLS      =   882375808.0000             AG WELLS      =          22.1508

               TOTAL OUT =  2207723264.0000                 TOTAL OUT =          32.5331

                IN - OUT =        -768.0000                  IN - OUT =      -6.8665E-05

     PERCENT DISCREPANCY =          -0.00         PERCENT DISCREPANCY =          -0.00






         TIME SUMMARY AT END OF TIME STEP   30 IN STRESS PERIOD   31
                    SECONDS     MINUTES      HOURS       DAYS        YEARS
                    -----------------------------------------------------------
   TIME STEP LENGTH  87667.      1461.1      24.352      1.0147     2.77799E-03
 STRESS PERIOD TIME 2.63000E+06  43833.      730.56      30.440     8.33397E-02
         TOTAL TIME 7.89864E+07 1.31644E+06  21941.      914.20      2.5029    
1
1
                            STRESS PERIOD NO.   32, LENGTH =   2630000.    
                            -----------------------------------------------

                              NUMBER OF TIME STEPS =    30

                               MULTIPLIER FOR DELT =     1.000

                            INITIAL TIME STEP SIZE =   87666.66    

 REUSING NON-PARAMETER GHB CELLS FROM LAST STRESS PERIOD

      2 GHB CELLS

 REUSING STREAM SEGMENT DATA FROM LAST STRESS PERIOD



            AREAL INFILTRATION RATE
 READING ON UNIT   19 WITH FORMAT: (10F4.0)            

            1           2           3           4           5           6           7           8           9          10
 ........................................................................................................................
   1   1.2000E-09   0.000       0.000       0.000       0.000       0.000       0.000       0.000       0.000       0.000    
   2   2.1000E-09  2.0000E-09  8.0000E-10  8.5000E-09   0.000       0.000       0.000       0.000       0.000       0.000    
   3   5.0000E-10  1.1000E-09  8.8000E-09  5.5000E-09   0.000       0.000       0.000       0.000       0.000       0.000    
   4   8.5000E-09  1.1000E-09  1.1000E-09  1.1000E-09  2.0000E-09   0.000       0.000       0.000       0.000       0.000    
   5   8.5000E-09  1.1000E-09  1.1000E-09  1.1000E-09  1.1000E-09   0.000       0.000       0.000       0.000       0.000    
   6   8.5000E-09  5.2000E-09  2.1000E-09  1.1000E-09  1.5000E-09   0.000       0.000       0.000       0.000       0.000    
   7   8.5000E-09  5.2000E-09  2.1000E-09  1.2000E-09  2.0000E-09   0.000       0.000       0.000       0.000       0.000    
   8   5.0000E-10  5.2000E-09  2.1000E-09  1.2000E-09  5.0000E-09   0.000       0.000       0.000       0.000       0.000    
   9   5.0000E-10  5.2000E-09  2.1000E-09  1.2000E-09  5.0000E-09   0.000       0.000       0.000       0.000       0.000    
  10   5.0000E-10  5.2000E-09  2.1000E-09  1.2000E-09  5.8000E-09   0.000       0.000       0.000       0.000       0.000    
  11   1.0000E-10  1.1000E-09  1.1000E-09  1.2000E-09  5.0000E-09   0.000       0.000       0.000       0.000       0.000    
  12   1.1000E-09  1.1000E-09  1.1000E-09  1.1000E-09  2.0000E-09   0.000       0.000       0.000       0.000       0.000    
  13   1.1000E-09  2.2000E-09  2.2000E-09  2.1000E-09  1.0000E-09   0.000       0.000       0.000       0.000       0.000    
  14   2.0000E-10  5.5000E-09  5.5000E-09  5.2000E-09  1.0000E-09   0.000       0.000       0.000       0.000       0.000    
  15    0.000      8.8000E-09  8.8000E-09   0.000       0.000       0.000       0.000       0.000       0.000       0.000    

                  ET RATE =  4.000000E-07

 USING ET EXTINCTION DEPTH FROM PREVIOUS STRESS PERIOD. CURRENT PERIOD IS:      32

 USING EXTINCTION WATER CONTENT FROM PREVIOUS STRESS PERIOD. CURRENT PERIOD IS:      32

 USING AIR ENTRY PRESSURE FROM PREVIOUS STRESS PERIOD. CURRENT PERIOD IS:      32

 USING ROOT PRESSURE HEAD FROM PREVIOUS STRESS PERIOD. CURRENT PERIOD IS:      32

 USING ROOT ACTIVITY FROM PREVIOUS STRESS PERIOD. CURRENT PERIOD IS:      32

 PROCESSING AG STRESS PERIOD DATA

 READING AG STRESS PERIOD DATA

 READING IRRIGATION WELL

 END PROCESSING AG STRESS PERIOD DATA OPTIONS
 
 SOLVING FOR HEAD 
                                                   Max.-Head-Change                         Max.-Flux-Residual
  Residual-Control   Outer-Iter.   Inner-Iter.     Column Row Layer    Maximum-Head-Change  Column Row Layer    Maximum-Flux-Residual          L2-NORM 
          0                 1           2             4    7     1      -0.1621088751E+00       4    7    1        -0.8476475239E+01      0.1986232124E+02
          0                 2           2             4    7     1       0.1576852674E-01       4    7    1         0.8476311616E+00      0.1986205169E+01
          0                 3           2             4    7     1      -0.1073780622E-02       4    7    1        -0.5933436175E-01      0.1390346744E+00
          0                 4           1             4    7     1       0.4272672424E-04       4    7    1         0.2426778057E-02      0.5686525007E-02

    ------------------------------------------------
       NWT REQUIRED            4 OUTER ITERATIONS 
       AND A TOTAL OF          7 INNER ITERATIONS.
    ------------------------------------------------

 NO OUTPUT CONTROL FOR STRESS PERIOD   32   TIME STEP    1
 
 SOLVING FOR HEAD 
                                                   Max.-Head-Change                         Max.-Flux-Residual
  Residual-Control   Outer-Iter.   Inner-Iter.     Column Row Layer    Maximum-Head-Change  Column Row Layer    Maximum-Flux-Residual          L2-NORM 
          0                 1           2             4    7     1      -0.1609425584E+00       4    7    1        -0.8418525696E+01      0.1951951802E+02
          0                 2           2             4    7     1       0.1565505919E-01       4    7    1         0.8418350741E+00      0.1951924570E+01
          0                 3           2             4    7     1      -0.1066054066E-02       4    7    1        -0.5892864617E-01      0.1366350333E+00
          0                 4           1             4    7     1       0.4241927690E-04       4    7    1         0.2410184218E-02      0.5588379219E-02

    ------------------------------------------------
       NWT REQUIRED            4 OUTER ITERATIONS 
       AND A TOTAL OF          7 INNER ITERATIONS.
    ------------------------------------------------

 NO OUTPUT CONTROL FOR STRESS PERIOD   32   TIME STEP    2
 
 SOLVING FOR HEAD 
                                                   Max.-Head-Change                         Max.-Flux-Residual
  Residual-Control   Outer-Iter.   Inner-Iter.     Column Row Layer    Maximum-Head-Change  Column Row Layer    Maximum-Flux-Residual          L2-NORM 
          0                 1           2             4    7     1      -0.1598199020E+00       4    7    1        -0.8362428915E+01      0.1922442394E+02
          0                 2           2             4    7     1       0.1554584128E-01       4    7    1         0.8362244417E+00      0.1922414941E+01
          0                 3           2             4    7     1      -0.1058616869E-02       4    7    1        -0.5853591078E-01      0.1345693604E+00
          0                 4           1             4    7     1       0.4212334302E-04       4    7    1         0.2394121268E-02      0.5503893266E-02

    ------------------------------------------------
       NWT REQUIRED            4 OUTER ITERATIONS 
       AND A TOTAL OF          7 INNER ITERATIONS.
    ------------------------------------------------

 NO OUTPUT CONTROL FOR STRESS PERIOD   32   TIME STEP    3
 
 SOLVING FOR HEAD 
                                                   Max.-Head-Change                         Max.-Flux-Residual
  Residual-Control   Outer-Iter.   Inner-Iter.     Column Row Layer    Maximum-Head-Change  Column Row Layer    Maximum-Flux-Residual          L2-NORM 
          0                 1           2             4    7     1      -0.1586585151E+00       4    7    1        -0.8304089447E+01      0.1894268269E+02
          0                 2           2             4    7     1       0.1543285776E-01       4    7    1         0.8303896610E+00      0.1894240703E+01
          0                 3           2             4    7     1      -0.1050923230E-02       4    7    1        -0.5812748384E-01      0.1325971646E+00
          0                 4           1             4    7     1       0.4181720549E-04       4    7    1         0.2377416556E-02      0.5423230013E-02

    ------------------------------------------------
       NWT REQUIRED            4 OUTER ITERATIONS 
       AND A TOTAL OF          7 INNER ITERATIONS.
    ------------------------------------------------

 NO OUTPUT CONTROL FOR STRESS PERIOD   32   TIME STEP    4
 
 SOLVING FOR HEAD 
                                                   Max.-Head-Change                         Max.-Flux-Residual
  Residual-Control   Outer-Iter.   Inner-Iter.     Column Row Layer    Maximum-Head-Change  Column Row Layer    Maximum-Flux-Residual          L2-NORM 
          0                 1           2             4    7     1      -0.1574627422E+00       4    7    1        -0.8243747266E+01      0.1867332638E+02
          0                 2           2             4    7     1       0.1531653106E-01       4    7    1         0.8243547199E+00      0.1867305051E+01
          0                 3           2             4    7     1      -0.1043001916E-02       4    7    1        -0.5770504461E-01      0.1307116680E+00
          0                 4           1             4    7     1       0.4150200868E-04       4    7    1         0.2360138729E-02      0.5346113633E-02

    ------------------------------------------------
       NWT REQUIRED            4 OUTER ITERATIONS 
       AND A TOTAL OF          7 INNER ITERATIONS.
    ------------------------------------------------

 NO OUTPUT CONTROL FOR STRESS PERIOD   32   TIME STEP    5
 
 SOLVING FOR HEAD 
                                                   Max.-Head-Change                         Max.-Flux-Residual
  Residual-Control   Outer-Iter.   Inner-Iter.     Column Row Layer    Maximum-Head-Change  Column Row Layer    Maximum-Flux-Residual          L2-NORM 
          0                 1           2             4    7     1      -0.1562361872E+00       4    7    1        -0.8181601267E+01      0.1841549089E+02
          0                 2           2             4    7     1       0.1519721163E-01       4    7    1         0.8181394998E+00      0.1841521559E+01
          0                 3           2             4    7     1      -0.1034876794E-02       4    7    1        -0.5726998489E-01      0.1289068208E+00
          0                 4           1             4    7     1       0.4117870206E-04       4    7    1         0.2342344744E-02      0.5272295295E-02

    ------------------------------------------------
       NWT REQUIRED            4 OUTER ITERATIONS 
       AND A TOTAL OF          7 INNER ITERATIONS.
    ------------------------------------------------

 NO OUTPUT CONTROL FOR STRESS PERIOD   32   TIME STEP    6
 
 SOLVING FOR HEAD 
                                                   Max.-Head-Change                         Max.-Flux-Residual
  Residual-Control   Outer-Iter.   Inner-Iter.     Column Row Layer    Maximum-Head-Change  Column Row Layer    Maximum-Flux-Residual          L2-NORM 
          0                 1           2             4    7     1      -0.1549827576E+00       4    7    1        -0.8117867545E+01      0.1816839792E+02
          0                 2           2             4    7     1       0.1507527945E-01       4    7    1         0.8117656021E+00      0.1816812390E+01
          0                 3           2             4    7     1      -0.1026573739E-02       4    7    1        -0.5682381684E-01      0.1271771785E+00
          0                 4           1             4    7     1       0.4084831521E-04       4    7    1         0.2324096415E-02      0.5201552467E-02

    ------------------------------------------------
       NWT REQUIRED            4 OUTER ITERATIONS 
       AND A TOTAL OF          7 INNER ITERATIONS.
    ------------------------------------------------

 NO OUTPUT CONTROL FOR STRESS PERIOD   32   TIME STEP    7
 
 SOLVING FOR HEAD 
                                                   Max.-Head-Change                         Max.-Flux-Residual
  Residual-Control   Outer-Iter.   Inner-Iter.     Column Row Layer    Maximum-Head-Change  Column Row Layer    Maximum-Flux-Residual          L2-NORM 
          0                 1           2             4    7     1      -0.1537057965E+00       4    7    1        -0.8052731254E+01      0.1793131681E+02
          0                 2           2             4    7     1       0.1495105957E-01       4    7    1         0.8052515345E+00      0.1793104462E+01
          0                 3           2             4    7     1      -0.1018114889E-02       4    7    1        -0.5636783605E-01      0.1255176208E+00
          0                 4           1             4    7     1       0.4051172953E-04       4    7    1         0.2305446761E-02      0.5133677861E-02

    ------------------------------------------------
       NWT REQUIRED            4 OUTER ITERATIONS 
       AND A TOTAL OF          7 INNER ITERATIONS.
    ------------------------------------------------

 NO OUTPUT CONTROL FOR STRESS PERIOD   32   TIME STEP    8
 
 SOLVING FOR HEAD 
                                                   Max.-Head-Change                         Max.-Flux-Residual
  Residual-Control   Outer-Iter.   Inner-Iter.     Column Row Layer    Maximum-Head-Change  Column Row Layer    Maximum-Flux-Residual          L2-NORM 
          0                 1           2             4    7     1      -0.1524087592E+00       4    7    1        -0.7986384137E+01      0.1770359970E+02
          0                 2           2             4    7     1       0.1482488802E-01       4    7    1         0.7986164643E+00      0.1770332984E+01
          0                 3           2             4    7     1      -0.1009523124E-02       4    7    1        -0.5590338432E-01      0.1239236143E+00
          0                 4           1             4    7     1       0.4016985467E-04       4    7    1         0.2286450625E-02      0.5068481751E-02

    ------------------------------------------------
       NWT REQUIRED            4 OUTER ITERATIONS 
       AND A TOTAL OF          7 INNER ITERATIONS.
    ------------------------------------------------

 NO OUTPUT CONTROL FOR STRESS PERIOD   32   TIME STEP    9
 
 SOLVING FOR HEAD 
                                                   Max.-Head-Change                         Max.-Flux-Residual
  Residual-Control   Outer-Iter.   Inner-Iter.     Column Row Layer    Maximum-Head-Change  Column Row Layer    Maximum-Flux-Residual          L2-NORM 
          0                 1           2             4    7     1      -0.1510944070E+00       4    7    1        -0.7918979659E+01      0.1748464930E+02
          0                 2           2             4    7     1       0.1469703328E-01       4    7    1         0.7918757313E+00      0.1748438218E+01
          0                 3           2             4    7     1      -0.1000816731E-02       4    7    1        -0.5543153552E-01      0.1223909777E+00
          0                 4           1             4    7     1       0.3982341926E-04       4    7    1         0.2267151985E-02      0.5005797028E-02

    ------------------------------------------------
       NWT REQUIRED            4 OUTER ITERATIONS 
       AND A TOTAL OF          7 INNER ITERATIONS.
    ------------------------------------------------

 NO OUTPUT CONTROL FOR STRESS PERIOD   32   TIME STEP   10
 
 SOLVING FOR HEAD 
                                                   Max.-Head-Change                         Max.-Flux-Residual
  Residual-Control   Outer-Iter.   Inner-Iter.     Column Row Layer    Maximum-Head-Change  Column Row Layer    Maximum-Flux-Residual          L2-NORM 
          0                 1           2             4    7     1      -0.1497656415E+00       4    7    1        -0.7850679407E+01      0.1727390605E+02
          0                 2           2             4    7     1       0.1456777752E-01       4    7    1         0.7850454878E+00      0.1727364200E+01
          0                 3           2             4    7     1      -0.9920149229E-03       4    7    1        -0.5495342031E-01      0.1209157931E+00
          0                 4           1             4    7     1       0.3947318717E-04       4    7    1         0.2247597035E-02      0.4945462014E-02

    ------------------------------------------------
       NWT REQUIRED            4 OUTER ITERATIONS 
       AND A TOTAL OF          7 INNER ITERATIONS.
    ------------------------------------------------

 NO OUTPUT CONTROL FOR STRESS PERIOD   32   TIME STEP   11
 
 SOLVING FOR HEAD 
                                                   Max.-Head-Change                         Max.-Flux-Residual
  Residual-Control   Outer-Iter.   Inner-Iter.     Column Row Layer    Maximum-Head-Change  Column Row Layer    Maximum-Flux-Residual          L2-NORM 
          0                 1           2             4    7     1      -0.1484252446E+00       4    7    1        -0.7781638263E+01      0.1707087803E+02
          0                 2           2             4    7     1       0.1443738966E-01       4    7    1         0.7781412162E+00      0.1707019659E+01
          0                 3           2             4    7     1      -0.9831360148E-03       4    7    1        -0.5447012259E-01      0.1194916703E+00
          0                 4           1             4    7     1       0.3911988693E-04       4    7    1         0.2227830128E-02      0.4887215458E-02

    ------------------------------------------------
       NWT REQUIRED            4 OUTER ITERATIONS 
       AND A TOTAL OF          7 INNER ITERATIONS.
    ------------------------------------------------

 NO OUTPUT CONTROL FOR STRESS PERIOD   32   TIME STEP   12
 
 SOLVING FOR HEAD 
                                                   Max.-Head-Change                         Max.-Flux-Residual
  Residual-Control   Outer-Iter.   Inner-Iter.     Column Row Layer    Maximum-Head-Change  Column Row Layer    Maximum-Flux-Residual          L2-NORM 
          0                 1           2             4    7     1      -0.1470755839E+00       4    7    1        -0.7711987874E+01      0.1687514935E+02
          0                 2           2             4    7     1       0.1430610465E-01       4    7    1         0.7711760759E+00      0.1687489254E+01
          0                 3           2             4    7     1      -0.9741960067E-03       4    7    1        -0.5398256352E-01      0.1181245382E+00
          0                 4           1             4    7     1       0.3876415554E-04       4    7    1         0.2207888932E-02      0.4831299141E-02

    ------------------------------------------------
       NWT REQUIRED            4 OUTER ITERATIONS 
       AND A TOTAL OF          7 INNER ITERATIONS.
    ------------------------------------------------

 NO OUTPUT CONTROL FOR STRESS PERIOD   32   TIME STEP   13
 
 SOLVING FOR HEAD 
                                                   Max.-Head-Change                         Max.-Flux-Residual
  Residual-Control   Outer-Iter.   Inner-Iter.     Column Row Layer    Maximum-Head-Change  Column Row Layer    Maximum-Flux-Residual          L2-NORM 
          0                 1           2             4    7     1      -0.1457187865E+00       4    7    1        -0.7641847901E+01      0.1668626295E+02
          0                 2           2             4    7     1       0.1417412462E-01       4    7    1         0.7641620279E+00      0.1668600998E+01
          0                 3           2             4    7     1      -0.9652086614E-03       4    7    1        -0.5349158040E-01      0.1168023566E+00
          0                 4           1             4    7     1       0.3840654066E-04       4    7    1         0.2187807688E-02      0.4777221920E-02

    ------------------------------------------------
       NWT REQUIRED            4 OUTER ITERATIONS 
       AND A TOTAL OF          7 INNER ITERATIONS.
    ------------------------------------------------

 NO OUTPUT CONTROL FOR STRESS PERIOD   32   TIME STEP   14
 
 SOLVING FOR HEAD 
                                                   Max.-Head-Change                         Max.-Flux-Residual
  Residual-Control   Outer-Iter.   Inner-Iter.     Column Row Layer    Maximum-Head-Change  Column Row Layer    Maximum-Flux-Residual          L2-NORM 
          0                 1           2             4    7     1      -0.1443573096E+00       4    7    1        -0.7571355509E+01      0.1650382424E+02
          0                 2           2             4    7     1       0.1404169006E-01       4    7    1         0.7571127837E+00      0.1650357525E+01
          0                 3           2             4    7     1      -0.9561903594E-03       4    7    1        -0.5299813315E-01      0.1155253151E+00
          0                 4           1             4    7     1       0.3804769403E-04       4    7    1         0.2167625675E-02      0.4725081126E-02

    ------------------------------------------------
       NWT REQUIRED            4 OUTER ITERATIONS 
       AND A TOTAL OF          7 INNER ITERATIONS.
    ------------------------------------------------

 NO OUTPUT CONTROL FOR STRESS PERIOD   32   TIME STEP   15
 
 SOLVING FOR HEAD 
                                                   Max.-Head-Change                         Max.-Flux-Residual
  Residual-Control   Outer-Iter.   Inner-Iter.     Column Row Layer    Maximum-Head-Change  Column Row Layer    Maximum-Flux-Residual          L2-NORM 
          0                 1           2             4    7     1      -0.1429927994E+00       4    7    1        -0.7500603162E+01      0.1632747055E+02
          0                 2           2             4    7     1       0.1390896107E-01       4    7    1         0.7500375856E+00      0.1632722566E+01
          0                 3           2             4    7     1      -0.9471520005E-03       4    7    1        -0.5250286873E-01      0.1142908575E+00
          0                 4           1             4    7     1       0.3768804934E-04       4    7    1         0.2147369332E-02      0.4674501103E-02

    ------------------------------------------------
       NWT REQUIRED            4 OUTER ITERATIONS 
       AND A TOTAL OF          7 INNER ITERATIONS.
    ------------------------------------------------

 NO OUTPUT CONTROL FOR STRESS PERIOD   32   TIME STEP   16
 
 SOLVING FOR HEAD 
                                                   Max.-Head-Change                         Max.-Flux-Residual
  Residual-Control   Outer-Iter.   Inner-Iter.     Column Row Layer    Maximum-Head-Change  Column Row Layer    Maximum-Flux-Residual          L2-NORM 
          0                 1           2             4    7     1      -0.1416272483E+00       4    7    1        -0.7429702836E+01      0.1615687418E+02
          0                 2           2             4    7     1       0.1377613136E-01       4    7    1         0.7429476269E+00      0.1615663348E+01
          0                 3           2             4    7     1      -0.9381067786E-03       4    7    1        -0.5200657070E-01      0.1130967080E+00
          0                 4           1             4    7     1       0.3732813168E-04       4    7    1         0.2127070719E-02      0.4625661137E-02

    ------------------------------------------------
       NWT REQUIRED            4 OUTER ITERATIONS 
       AND A TOTAL OF          7 INNER ITERATIONS.
    ------------------------------------------------

 NO OUTPUT CONTROL FOR STRESS PERIOD   32   TIME STEP   17
 
 SOLVING FOR HEAD 
                                                   Max.-Head-Change                         Max.-Flux-Residual
  Residual-Control   Outer-Iter.   Inner-Iter.     Column Row Layer    Maximum-Head-Change  Column Row Layer    Maximum-Flux-Residual          L2-NORM 
          0                 1           2             4    7     1      -0.1402621833E+00       4    7    1        -0.7358740416E+01      0.1599172487E+02
          0                 2           2             4    7     1       0.1364334944E-01       4    7    1         0.7358514925E+00      0.1599148849E+01
          0                 3           2             4    7     1      -0.9290648053E-03       4    7    1        -0.5150984007E-01      0.1119406977E+00
          0                 4           1             4    7     1       0.3696834307E-04       4    7    1         0.2106754401E-02      0.4578380032E-02

    ------------------------------------------------
       NWT REQUIRED            4 OUTER ITERATIONS 
       AND A TOTAL OF          7 INNER ITERATIONS.
    ------------------------------------------------

 NO OUTPUT CONTROL FOR STRESS PERIOD   32   TIME STEP   18
 
 SOLVING FOR HEAD 
                                                   Max.-Head-Change                         Max.-Flux-Residual
  Residual-Control   Outer-Iter.   Inner-Iter.     Column Row Layer    Maximum-Head-Change  Column Row Layer    Maximum-Flux-Residual          L2-NORM 
          0                 1           2             4    7     1      -0.1388993013E+00       4    7    1        -0.7287811540E+01      0.1583174366E+02
          0                 2           2             4    7     1       0.1351078030E-01       4    7    1         0.7287587426E+00      0.1583151153E+01
          0                 3           2             4    7     1      -0.9200373177E-03       4    7    1        -0.5101334604E-01      0.1108208455E+00
          0                 4           1             4    7     1       0.3660913091E-04       4    7    1         0.2086447794E-02      0.4532578723E-02

    ------------------------------------------------
       NWT REQUIRED            4 OUTER ITERATIONS 
       AND A TOTAL OF          7 INNER ITERATIONS.
    ------------------------------------------------

 NO OUTPUT CONTROL FOR STRESS PERIOD   32   TIME STEP   19
 
 SOLVING FOR HEAD 
                                                   Max.-Head-Change                         Max.-Flux-Residual
  Residual-Control   Outer-Iter.   Inner-Iter.     Column Row Layer    Maximum-Head-Change  Column Row Layer    Maximum-Flux-Residual          L2-NORM 
          0                 1           2             4    7     1      -0.1375399987E+00       4    7    1        -0.7216995004E+01      0.1567666013E+02
          0                 2           2             4    7     1       0.1337855974E-01       4    7    1         0.7216772536E+00      0.1567643230E+01
          0                 3           2             4    7     1      -0.9110335634E-03       4    7    1        -0.5051764006E-01      0.1097352859E+00
          0                 4           1             4    7     1       0.3625086349E-04       4    7    1         0.2066173392E-02      0.4488177363E-02

    ------------------------------------------------
       NWT REQUIRED            4 OUTER ITERATIONS 
       AND A TOTAL OF          7 INNER ITERATIONS.
    ------------------------------------------------

 NO OUTPUT CONTROL FOR STRESS PERIOD   32   TIME STEP   20
 
 SOLVING FOR HEAD 
                                                   Max.-Head-Change                         Max.-Flux-Residual
  Residual-Control   Outer-Iter.   Inner-Iter.     Column Row Layer    Maximum-Head-Change  Column Row Layer    Maximum-Flux-Residual          L2-NORM 
          0                 1           2             4    7     1      -0.1361855900E+00       4    7    1        -0.7146365127E+01      0.1552624725E+02
          0                 2           2             4    7     1       0.1324681557E-01       4    7    1         0.7146144543E+00      0.1552602375E+01
          0                 3           2             4    7     1      -0.9020622453E-03       4    7    1        -0.5002324211E-01      0.1086824220E+00
          0                 4           1             4    7     1       0.3589388608E-04       4    7    1         0.2045952474E-02      0.4445116133E-02

    ------------------------------------------------
       NWT REQUIRED            4 OUTER ITERATIONS 
       AND A TOTAL OF          7 INNER ITERATIONS.
    ------------------------------------------------

 NO OUTPUT CONTROL FOR STRESS PERIOD   32   TIME STEP   21
 
 SOLVING FOR HEAD 
                                                   Max.-Head-Change                         Max.-Flux-Residual
  Residual-Control   Outer-Iter.   Inner-Iter.     Column Row Layer    Maximum-Head-Change  Column Row Layer    Maximum-Flux-Residual          L2-NORM 
          0                 1           2             4    7     1      -0.1348371038E+00       4    7    1        -0.7075980883E+01      0.1538025983E+02
          0                 2           2             4    7     1       0.1311564780E-01       4    7    1         0.7075762397E+00      0.1538004065E+01
          0                 3           2             4    7     1      -0.8931301755E-03       4    7    1        -0.4953056489E-01      0.1076605347E+00
          0                 4           1             4    7     1       0.3553847117E-04       4    7    1         0.2025801973E-02      0.4403320377E-02

    ------------------------------------------------
       NWT REQUIRED            4 OUTER ITERATIONS 
       AND A TOTAL OF          7 INNER ITERATIONS.
    ------------------------------------------------

 NO OUTPUT CONTROL FOR STRESS PERIOD   32   TIME STEP   22
 
 SOLVING FOR HEAD 
                                                   Max.-Head-Change                         Max.-Flux-Residual
  Residual-Control   Outer-Iter.   Inner-Iter.     Column Row Layer    Maximum-Head-Change  Column Row Layer    Maximum-Flux-Residual          L2-NORM 
          0                 1           2             4    7     1      -0.1334957769E+00       4    7    1        -0.7005912048E+01      0.1523849383E+02
          0                 2           2             4    7     1       0.1298517671E-01       4    7    1         0.7005695846E+00      0.1523827874E+01
          0                 3           2             4    7     1      -0.8842455446E-03       4    7    1        -0.4904009667E-01      0.1066681962E+00
          0                 4           1             4    7     1       0.3518494355E-04       4    7    1         0.2005741804E-02      0.4362734397E-02

    ------------------------------------------------
       NWT REQUIRED            4 OUTER ITERATIONS 
       AND A TOTAL OF          7 INNER ITERATIONS.
    ------------------------------------------------

 NO OUTPUT CONTROL FOR STRESS PERIOD   32   TIME STEP   23
 
 SOLVING FOR HEAD 
                                                   Max.-Head-Change                         Max.-Flux-Residual
  Residual-Control   Outer-Iter.   Inner-Iter.     Column Row Layer    Maximum-Head-Change  Column Row Layer    Maximum-Flux-Residual          L2-NORM 
          0                 1           2             4    7     1      -0.1321627019E+00       4    7    1        -0.6936220843E+01      0.1510076117E+02
          0                 2           2             4    7     1       0.1285550855E-01       4    7    1         0.6936007087E+00      0.1510055023E+01
          0                 3           2             4    7     1      -0.8754155878E-03       4    7    1        -0.4855227283E-01      0.1057040932E+00
          0                 4           1             4    7     1       0.3483359138E-04       4    7    1         0.1985789791E-02      0.4323302376E-02

    ------------------------------------------------
       NWT REQUIRED            4 OUTER ITERATIONS 
       AND A TOTAL OF          7 INNER ITERATIONS.
    ------------------------------------------------

 NO OUTPUT CONTROL FOR STRESS PERIOD   32   TIME STEP   24
 
 SOLVING FOR HEAD 
                                                   Max.-Head-Change                         Max.-Flux-Residual
  Residual-Control   Outer-Iter.   Inner-Iter.     Column Row Layer    Maximum-Head-Change  Column Row Layer    Maximum-Flux-Residual          L2-NORM 
          0                 1           2             4    7     1      -0.1308385309E+00       4    7    1        -0.6866944993E+01      0.1496686479E+02
          0                 2           2             4    7     1       0.1272670670E-01       4    7    1         0.6866733827E+00      0.1496665811E+01
          0                 3           2             4    7     1      -0.8666446208E-03       4    7    1        -0.4806735734E-01      0.1047668441E+00
          0                 4           1             4    7     1       0.3448458644E-04       4    7    1         0.1965956717E-02      0.4284969051E-02

    ------------------------------------------------
       NWT REQUIRED            4 OUTER ITERATIONS 
       AND A TOTAL OF          7 INNER ITERATIONS.
    ------------------------------------------------

 NO OUTPUT CONTROL FOR STRESS PERIOD   32   TIME STEP   25
 
 SOLVING FOR HEAD 
                                                   Max.-Head-Change                         Max.-Flux-Residual
  Residual-Control   Outer-Iter.   Inner-Iter.     Column Row Layer    Maximum-Head-Change  Column Row Layer    Maximum-Flux-Residual          L2-NORM 
          0                 1           2             4    7     1      -0.1295242830E+00       4    7    1        -0.6798142574E+01      0.1483664361E+02
          0                 2           2             4    7     1       0.1259887028E-01       4    7    1         0.6797934120E+00      0.1483644119E+01
          0                 3           2             4    7     1      -0.8579393954E-03       4    7    1        -0.4758575663E-01      0.1038553208E+00
          0                 4           1             4    7     1       0.3413819765E-04       4    7    1         0.1946259240E-02      0.4247687678E-02

    ------------------------------------------------
       NWT REQUIRED            4 OUTER ITERATIONS 
       AND A TOTAL OF          7 INNER ITERATIONS.
    ------------------------------------------------

 NO OUTPUT CONTROL FOR STRESS PERIOD   32   TIME STEP   26
 
 SOLVING FOR HEAD 
                                                   Max.-Head-Change                         Max.-Flux-Residual
  Residual-Control   Outer-Iter.   Inner-Iter.     Column Row Layer    Maximum-Head-Change  Column Row Layer    Maximum-Flux-Residual          L2-NORM 
          0                 1           2             4    7     1      -0.1282205926E+00       4    7    1        -0.6729850379E+01      0.1470992919E+02
          0                 2           2             4    7     1       0.1247206098E-01       4    7    1         0.6729644742E+00      0.1470973085E+01
          0                 3           2             4    7     1      -0.8493041107E-03       4    7    1        -0.4710772811E-01      0.1029683451E+00
          0                 4           1             4    7     1       0.3379459173E-04       4    7    1         0.1926707863E-02      0.4211410499E-02

    ------------------------------------------------
       NWT REQUIRED            4 OUTER ITERATIONS 
       AND A TOTAL OF          7 INNER ITERATIONS.
    ------------------------------------------------

 NO OUTPUT CONTROL FOR STRESS PERIOD   32   TIME STEP   27
 
 SOLVING FOR HEAD 
                                                   Max.-Head-Change                         Max.-Flux-Residual
  Residual-Control   Outer-Iter.   Inner-Iter.     Column Row Layer    Maximum-Head-Change  Column Row Layer    Maximum-Flux-Residual          L2-NORM 
          0                 1           2             4    7     1      -0.1269282051E+00       4    7    1        -0.6662111046E+01      0.1458658763E+02
          0                 2           2             4    7     1       0.1234635127E-01       4    7    1         0.6661908315E+00      0.1458646339E+01
          0                 3           2             4    7     1      -0.8407437030E-03       4    7    1        -0.4663357016E-01      0.1021054662E+00
          0                 4           1             4    7     1       0.3345396520E-04       4    7    1         0.1907314784E-02      0.4176134316E-02

    ------------------------------------------------
       NWT REQUIRED            4 OUTER ITERATIONS 
       AND A TOTAL OF          7 INNER ITERATIONS.
    ------------------------------------------------

 NO OUTPUT CONTROL FOR STRESS PERIOD   32   TIME STEP   28
 
 SOLVING FOR HEAD 
                                                   Max.-Head-Change                         Max.-Flux-Residual
  Residual-Control   Outer-Iter.   Inner-Iter.     Column Row Layer    Maximum-Head-Change  Column Row Layer    Maximum-Flux-Residual          L2-NORM 
          0                 1           2             4    7     1      -0.1256477084E+00       4    7    1        -0.6594958821E+01      0.1446646381E+02
          0                 2           2             4    7     1       0.1222179831E-01       4    7    1         0.6594759070E+00      0.1446627471E+01
          0                 3           2             4    7     1      -0.8322620644E-03       4    7    1        -0.4616352242E-01      0.1012641426E+00
          0                 4           1             4    7     1       0.3311647347E-04       4    7    1         0.1888089832E-02      0.4141915352E-02

    ------------------------------------------------
       NWT REQUIRED            4 OUTER ITERATIONS 
       AND A TOTAL OF          7 INNER ITERATIONS.
    ------------------------------------------------

 NO OUTPUT CONTROL FOR STRESS PERIOD   32   TIME STEP   29
 
 SOLVING FOR HEAD 
                                                   Max.-Head-Change                         Max.-Flux-Residual
  Residual-Control   Outer-Iter.   Inner-Iter.     Column Row Layer    Maximum-Head-Change  Column Row Layer    Maximum-Flux-Residual          L2-NORM 
          0                 1           2             4    7     1      -0.1243794748E+00       4    7    1        -0.6528415982E+01      0.1434938984E+02
          0                 2           2             4    7     1       0.1209843837E-01       4    7    1         0.6528219271E+00      0.1434962339E+01
          0                 3           2             4    7     1      -0.8238616655E-03       4    7    1        -0.4569774075E-01      0.1004475779E+00
          0                 4           1             4    7     1       0.3278221338E-04       4    7    1         0.1869039324E-02      0.4108311085E-02

    ------------------------------------------------
       NWT REQUIRED            4 OUTER ITERATIONS 
       AND A TOTAL OF          7 INNER ITERATIONS.
    ------------------------------------------------

 NO OUTPUT CONTROL FOR STRESS PERIOD   32   TIME STEP   30



 STREAM LISTING     PERIOD     32   STEP       30

 LAYER ROW COL. STREAM  RCH.  FLOW INTO     FLOW TO   FLOW OUT OF   OVRLND.     DIRECT     STREAM       STREAM     STREAM     STREAM   STREAMBED  STREAMBED
                SEG.NO.  NO.  STRM. RCH.    AQUIFER    STRM. RCH.    RUNOFF     PRECIP       ET          HEAD       DEPTH      WIDTH   CONDCTNC.   GRADIENT

   1    1    1     1     1    1.9000E+01  2.1427E-01   1.8786E+01  0.000E+00  0.000E+00  0.000E+00  1.09413E+03  1.082E+00  1.166E+01  5.249E-02  1.361E+00
   1    2    2     1     2    1.8786E+01  3.3054E-01   1.8455E+01  0.000E+00  0.000E+00  0.000E+00  1.08914E+03  1.077E+00  1.158E+01  8.107E-02  1.359E+00
   1    3    3     1     3    1.8455E+01  2.8064E-01   1.8175E+01  0.000E+00  0.000E+00  0.000E+00  1.08349E+03  1.072E+00  1.149E+01  6.892E-02  1.357E+00
   1    3    4     1     4    1.8175E+01  2.5740E-01   1.7917E+01  0.000E+00  0.000E+00  0.000E+00  1.07848E+03  1.068E+00  1.140E+01  6.328E-02  1.356E+00
   1    4    5     2     1    1.5917E+01  3.0542E-01   1.5612E+01  0.000E+00  0.000E+00  0.000E+00  1.07285E+03  9.157E-01  1.200E+01  7.800E-02  1.305E+00
   1    5    6     2     2    1.5612E+01  2.3438E-01   1.5377E+01  0.000E+00  0.000E+00  0.000E+00  1.06742E+03  9.063E-01  1.200E+01  6.000E-02  1.302E+00
   1    6    6     2     3    1.5377E+01  2.3388E-01   1.5143E+01  0.000E+00  0.000E+00  0.000E+00  1.06269E+03  8.980E-01  1.200E+01  6.000E-02  1.299E+00
   1    7    6     2     4    1.5143E+01  2.3338E-01   1.4910E+01  0.000E+00  0.000E+00  0.000E+00  1.05797E+03  8.897E-01  1.200E+01  6.000E-02  1.297E+00
   1    8    6     2     5    1.4910E+01  2.3289E-01   1.4677E+01  0.000E+00  0.000E+00  0.000E+00  1.05324E+03  8.814E-01  1.200E+01  6.000E-02  1.294E+00
   1    3    5     3     1    2.0000E+00  2.8252E-01   1.7175E+00  0.000E+00  0.000E+00  0.000E+00  1.07555E+03  1.909E+00  9.636E+00  7.227E-02  1.955E+00
   1    3    6     3     2    1.7175E+00  2.4905E-01   1.4684E+00  0.000E+00  0.000E+00  0.000E+00  1.07264E+03  1.727E+00  8.909E+00  6.682E-02  1.864E+00
   1    3    7     3     3    1.4684E+00  1.9718E-01   1.2712E+00  0.000E+00  0.000E+00  0.000E+00  1.06987E+03  1.555E+00  8.218E+00  5.547E-02  1.777E+00
   1    4    8     3     4    1.2712E+00  2.2567E-01   1.0456E+00  0.000E+00  0.000E+00  0.000E+00  1.06682E+03  1.364E+00  7.455E+00  6.709E-02  1.682E+00
   1    5    8     3     5    1.0456E+00  1.5790E-01   8.8768E-01  0.000E+00  0.000E+00  0.000E+00  1.06362E+03  1.164E+00  6.655E+00  4.991E-02  1.582E+00
   1    6    8     3     6    8.8768E-01  5.5980E-02   8.3170E-01  0.000E+00  0.000E+00  0.000E+00  1.06158E+03  1.036E+00  6.145E+00  1.844E-02  1.518E+00
   1    5   10     4     1    1.0000E+01  9.0919E-02   9.9091E+00  0.000E+00  0.000E+00  0.000E+00  1.07836E+03  6.368E-01  1.000E+01  2.500E-02  1.212E+00
   1    5    9     4     2    9.9091E+00  1.8158E-01   9.7275E+00  0.000E+00  0.000E+00  0.000E+00  1.07154E+03  6.315E-01  1.000E+01  5.000E-02  1.211E+00
   1    6    8     4     3    9.7275E+00  1.2689E-01   9.6006E+00  0.000E+00  0.000E+00  0.000E+00  1.06381E+03  6.256E-01  1.000E+01  3.500E-02  1.209E+00
   1    6    8     5     1    1.0432E+01  2.2686E-01   1.0205E+01  0.000E+00  0.000E+00  0.000E+00  1.05868E+03  6.790E-01  1.542E+01  6.166E-02  1.226E+00
   1    7    7     5     2    1.0205E+01  2.7894E-01   9.9265E+00  0.000E+00  0.000E+00  0.000E+00  1.05417E+03  6.732E-01  1.519E+01  7.594E-02  1.224E+00
   1    8    7     5     3    9.9265E+00  1.9221E-01   9.7343E+00  0.000E+00  0.000E+00  0.000E+00  1.04992E+03  6.676E-01  1.497E+01  5.241E-02  1.223E+00
   1    8    6     5     4    9.7343E+00  1.3577E-01   9.5985E+00  0.000E+00  0.000E+00  0.000E+00  1.04691E+03  6.637E-01  1.482E+01  3.706E-02  1.221E+00
   1    9    6     6     1    2.4276E+01  2.5176E-01   2.4024E+01  0.000E+00  0.000E+00  0.000E+00  1.04392E+03  1.196E+00  1.200E+01  6.000E-02  1.399E+00
   1   10    7     6     2    2.4024E+01  2.5131E-01   2.3773E+01  0.000E+00  0.000E+00  0.000E+00  1.03937E+03  1.188E+00  1.200E+01  6.000E-02  1.396E+00
   1   11    7     6     3    2.3773E+01  2.5086E-01   2.3522E+01  0.000E+00  0.000E+00  0.000E+00  1.03482E+03  1.181E+00  1.200E+01  6.000E-02  1.394E+00
   1   12    7     6     4    2.3522E+01  2.5041E-01   2.3271E+01  0.000E+00  0.000E+00  0.000E+00  1.03026E+03  1.173E+00  1.200E+01  6.000E-02  1.391E+00
   1   13    7     6     5    2.3271E+01  6.5114E-03   2.3265E+01  0.000E+00  0.000E+00  0.000E+00  1.02708E+03  1.170E+00  1.200E+01  2.400E-02  9.044E-02
   1   14    9     7     1    1.5000E+02  1.3492E+00   1.4865E+02  0.000E+00  0.000E+00  0.000E+00  1.03987E+03  2.288E+00  5.529E+01  5.593E-01  8.041E-01
   1   13    8     7     2    1.4865E+02  1.9072E+00   1.4674E+02  0.000E+00  0.000E+00  0.000E+00  1.03478E+03  2.279E+00  5.526E+01  6.148E-01  1.034E+00
   1   13    7     7     3    1.4674E+02  1.6091E+00   1.4513E+02  0.000E+00  0.000E+00  0.000E+00  1.02969E+03  2.270E+00  5.521E+01  5.584E-01  9.605E-01
   1   13    6     8     1    1.6840E+02  1.0498E+00   1.6735E+02  0.000E+00  0.000E+00  0.000E+00  1.02481E+03  2.938E+00  4.261E+01  4.342E-01  8.060E-01
   1   13    5     8     2    1.6735E+02  2.9493E-01   1.6705E+02  0.000E+00  0.000E+00  0.000E+00  1.01856E+03  2.934E+00  4.254E+01  4.335E-01  2.268E-01
   1   13    4     8     3    1.6705E+02 -2.0389E+00   1.6909E+02  0.000E+00  0.000E+00  0.000E+00  1.01231E+03  2.940E+00  4.262E+01  4.344E+00 -1.565E-01
   1   13    3     8     4    1.6909E+02 -3.4535E+00   1.7255E+02  0.000E+00  0.000E+00  0.000E+00  1.00608E+03  2.958E+00  4.288E+01  4.370E+00 -2.634E-01
   1   13    2     8     5    1.7255E+02 -2.5299E+00   1.7508E+02  0.000E+00  0.000E+00  0.000E+00  9.99852E+02  2.977E+00  4.316E+01  4.399E+00 -1.917E-01
   1   13    1     8     6    1.7508E+02 -1.9710E+00   1.7705E+02  0.000E+00  0.000E+00  0.000E+00  9.94866E+02  2.991E+00  4.337E+01  2.652E+00 -2.477E-01





UNSATURATED ZONE PACKAGE VOLUMETRIC BUDGET FOR  TIME STEP    30 STRESS PERIOD   32
  ------------------------------------------------------------------------------



     CUMULATIVE VOLUMES      L**3       RATES FOR THIS TIME STEP      L**3/T
     ------------------                 ------------------------

           IN:                                      IN:
           ---                                      ---
        INFILTRATION =  1398556362.1687          INFILTRATION =          64.0351

          OUT:                                     OUT:
          ----                                     ----
              UZF ET =  1306601858.7928                UZF ET =          64.1075
        UZF RECHARGE =      883052.6633          UZF RECHARGE =           0.0002

            IN - OUT =    91071450.7125              IN - OUT =      -7.2641E-02

          STORAGE:                                 STORAGE:
          --------                                 --------
      STORAGE CHANGE =    91073087.6959        STORAGE CHANGE =      -7.2642E-02

 PERCENT DISCREPANCY IS DIFFERENCE BETWEEN IN-OUT MINUS CHANGE IN STORAGE
 DIVIDED BY THE AVERAGE OF IN AND OUT TIMES 100

 PERCENT DISCREPANCY =          -0.00     PERCENT DISCREPANCY =           0.00






1
  VOLUMETRIC BUDGET FOR ENTIRE MODEL AT END OF TIME STEP   30, STRESS PERIOD  32
  ------------------------------------------------------------------------------

     CUMULATIVE VOLUMES      L**3       RATES FOR THIS TIME STEP      L**3/T
     ------------------                 ------------------------

           IN:                                      IN:
           ---                                      ---
               AG WELLS  =  1039139904.0000                 AG WELLS  =          59.6276
      DIVERSION SEGMENTS =           0.0000        DIVERSION SEGMENTS =           0.0000
           GW IRRIGATION =           0.0000             GW IRRIGATION =           0.0000
           SW IRRIGATION =           0.0000             SW IRRIGATION =           0.0000
        SYSTEM LOSSES GW =           0.0000          SYSTEM LOSSES GW =           0.0000
        SYSTEM LOSSES SW =           0.0000          SYSTEM LOSSES SW =           0.0000

                TOTAL IN =  1039139904.0000                  TOTAL IN =          59.6276

          OUT:                                     OUT:
          ----                                     ----
               AG WELLS  =           0.0000                 AG WELLS  =           0.0000
      DIVERSION SEGMENTS =           0.0000        DIVERSION SEGMENTS =           0.0000
           GW IRRIGATION =  1039139904.0000             GW IRRIGATION =          59.6276
           SW IRRIGATION =           0.0000             SW IRRIGATION =           0.0000
        SYSTEM LOSSES GW =           0.0000          SYSTEM LOSSES GW =           0.0000
        SYSTEM LOSSES SW =           0.0000          SYSTEM LOSSES SW =           0.0000

               TOTAL OUT =  1039139904.0000                 TOTAL OUT =          59.6276

                IN - OUT =           0.0000                  IN - OUT =           0.0000

     PERCENT DISCREPANCY =           0.00         PERCENT DISCREPANCY =           0.00



1
  VOLUMETRIC BUDGET FOR ENTIRE MODEL AT END OF TIME STEP   30, STRESS PERIOD  32
  ------------------------------------------------------------------------------

     CUMULATIVE VOLUMES      L**3       RATES FOR THIS TIME STEP      L**3/T
     ------------------                 ------------------------

           IN:                                      IN:
           ---                                      ---
             STORAGE     =  1365308288.0000               STORAGE     =          57.7486
       CONSTANT HEAD     =           0.0000         CONSTANT HEAD     =           0.0000
     HEAD DEP BOUNDS     =    23313296.0000       HEAD DEP BOUNDS     =           0.2867
      STREAM LEAKAGE     =  1002248448.0000        STREAM LEAKAGE     =          11.9454
        UZF RECHARGE     =      883052.6875          UZF RECHARGE     =       2.1245E-04
               GW ET     =           0.0000                 GW ET     =           0.0000
     SURFACE LEAKAGE     =           0.0000       SURFACE LEAKAGE     =           0.0000
           AG WELLS      =           0.0000             AG WELLS      =           0.0000

                TOTAL IN =  2391752960.0000                  TOTAL IN =          69.9808

          OUT:                                     OUT:
          ----                                     ----
             STORAGE     =   468325056.0000               STORAGE     =       7.1105E-02
       CONSTANT HEAD     =           0.0000         CONSTANT HEAD     =           0.0000
     HEAD DEP BOUNDS     =    23912090.0000       HEAD DEP BOUNDS     =           0.2892
      STREAM LEAKAGE     =   843057024.0000        STREAM LEAKAGE     =           9.9932
        UZF RECHARGE     =           0.0000          UZF RECHARGE     =           0.0000
               GW ET     =    17319432.0000                 GW ET     =           0.0000
     SURFACE LEAKAGE     =           0.0000       SURFACE LEAKAGE     =           0.0000
           AG WELLS      =  1039139904.0000             AG WELLS      =          59.6276

               TOTAL OUT =  2391753472.0000                 TOTAL OUT =          69.9810

                IN - OUT =        -512.0000                  IN - OUT =      -2.0599E-04

     PERCENT DISCREPANCY =          -0.00         PERCENT DISCREPANCY =          -0.00






         TIME SUMMARY AT END OF TIME STEP   30 IN STRESS PERIOD   32
                    SECONDS     MINUTES      HOURS       DAYS        YEARS
                    -----------------------------------------------------------
   TIME STEP LENGTH  87667.      1461.1      24.352      1.0147     2.77799E-03
 STRESS PERIOD TIME 2.63000E+06  43833.      730.56      30.440     8.33397E-02
         TOTAL TIME 8.16164E+07 1.36027E+06  22671.      944.63      2.5863    
1
1
                            STRESS PERIOD NO.   33, LENGTH =   2630000.    
                            -----------------------------------------------

                              NUMBER OF TIME STEPS =    30

                               MULTIPLIER FOR DELT =     1.000

                            INITIAL TIME STEP SIZE =   87666.66    

 REUSING NON-PARAMETER GHB CELLS FROM LAST STRESS PERIOD

      2 GHB CELLS

 REUSING STREAM SEGMENT DATA FROM LAST STRESS PERIOD



            AREAL INFILTRATION RATE
 READING ON UNIT   19 WITH FORMAT: (10F4.0)            

            1           2           3           4           5           6           7           8           9          10
 ........................................................................................................................
   1   1.2000E-09   0.000       0.000       0.000       0.000       0.000       0.000       0.000       0.000       0.000    
   2   2.1000E-09  2.0000E-09  8.0000E-10  8.5000E-09   0.000       0.000       0.000       0.000       0.000       0.000    
   3   5.0000E-10  1.1000E-09  8.8000E-09  5.5000E-09   0.000       0.000       0.000       0.000       0.000       0.000    
   4   8.5000E-09  1.1000E-09  1.1000E-09  1.1000E-09  2.0000E-09   0.000       0.000       0.000       0.000       0.000    
   5   8.5000E-09  1.1000E-09  1.1000E-09  1.1000E-09  1.1000E-09   0.000       0.000       0.000       0.000       0.000    
   6   8.5000E-09  5.2000E-09  2.1000E-09  1.1000E-09  1.5000E-09   0.000       0.000       0.000       0.000       0.000    
   7   8.5000E-09  5.2000E-09  2.1000E-09  1.2000E-09  2.0000E-09   0.000       0.000       0.000       0.000       0.000    
   8   5.0000E-10  5.2000E-09  2.1000E-09  1.2000E-09  5.0000E-09   0.000       0.000       0.000       0.000       0.000    
   9   5.0000E-10  5.2000E-09  2.1000E-09  1.2000E-09  5.0000E-09   0.000       0.000       0.000       0.000       0.000    
  10   5.0000E-10  5.2000E-09  2.1000E-09  1.2000E-09  5.8000E-09   0.000       0.000       0.000       0.000       0.000    
  11   1.0000E-10  1.1000E-09  1.1000E-09  1.2000E-09  5.0000E-09   0.000       0.000       0.000       0.000       0.000    
  12   1.1000E-09  1.1000E-09  1.1000E-09  1.1000E-09  2.0000E-09   0.000       0.000       0.000       0.000       0.000    
  13   1.1000E-09  2.2000E-09  2.2000E-09  2.1000E-09  1.0000E-09   0.000       0.000       0.000       0.000       0.000    
  14   2.0000E-10  5.5000E-09  5.5000E-09  5.2000E-09  1.0000E-09   0.000       0.000       0.000       0.000       0.000    
  15    0.000      8.8000E-09  8.8000E-09   0.000       0.000       0.000       0.000       0.000       0.000       0.000    

                  ET RATE =  3.250000E-07

 USING ET EXTINCTION DEPTH FROM PREVIOUS STRESS PERIOD. CURRENT PERIOD IS:      33

 USING EXTINCTION WATER CONTENT FROM PREVIOUS STRESS PERIOD. CURRENT PERIOD IS:      33

 USING AIR ENTRY PRESSURE FROM PREVIOUS STRESS PERIOD. CURRENT PERIOD IS:      33

 USING ROOT PRESSURE HEAD FROM PREVIOUS STRESS PERIOD. CURRENT PERIOD IS:      33

 USING ROOT ACTIVITY FROM PREVIOUS STRESS PERIOD. CURRENT PERIOD IS:      33

 PROCESSING AG STRESS PERIOD DATA

 READING AG STRESS PERIOD DATA

 READING IRRIGATION WELL

 END PROCESSING AG STRESS PERIOD DATA OPTIONS
 
 SOLVING FOR HEAD 
                                                   Max.-Head-Change                         Max.-Flux-Residual
  Residual-Control   Outer-Iter.   Inner-Iter.     Column Row Layer    Maximum-Head-Change  Column Row Layer    Maximum-Flux-Residual          L2-NORM 
          0                 1           2             4    7     1      -0.8720709204E-01       4    7    1        -0.4587523579E+01      0.1020563599E+02
          0                 2           2             4    7     1       0.8482695612E-02       4    7    1         0.4587404374E+00      0.1020555250E+01
          0                 3           2             4    7     1      -0.5776418491E-03       4    7    1        -0.3211195727E-01      0.7143897195E-01
          0                 4           1             4    7     1       0.2298490237E-04       4    7    1         0.1313380372E-02      0.2921857847E-02

    ------------------------------------------------
       NWT REQUIRED            4 OUTER ITERATIONS 
       AND A TOTAL OF          7 INNER ITERATIONS.
    ------------------------------------------------

 NO OUTPUT CONTROL FOR STRESS PERIOD   33   TIME STEP    1
 
 SOLVING FOR HEAD 
                                                   Max.-Head-Change                         Max.-Flux-Residual
  Residual-Control   Outer-Iter.   Inner-Iter.     Column Row Layer    Maximum-Head-Change  Column Row Layer    Maximum-Flux-Residual          L2-NORM 
          0                 1           2             4    7     1      -0.8615108976E-01       4    7    1        -0.4531151626E+01      0.1014365194E+02
          0                 2           2             4    7     1       0.8379980976E-02       4    7    1         0.4531036227E+00      0.1014357036E+01
          0                 3           2             4    7     1      -0.5706473083E-03       4    7    1        -0.3171737648E-01      0.7100509598E-01
          0                 4           1             4    7     1       0.2270658312E-04       4    7    1         0.1297241993E-02      0.2904112751E-02

    ------------------------------------------------
       NWT REQUIRED            4 OUTER ITERATIONS 
       AND A TOTAL OF          7 INNER ITERATIONS.
    ------------------------------------------------

 NO OUTPUT CONTROL FOR STRESS PERIOD   33   TIME STEP    2
 
 SOLVING FOR HEAD 
                                                   Max.-Head-Change                         Max.-Flux-Residual
  Residual-Control   Outer-Iter.   Inner-Iter.     Column Row Layer    Maximum-Head-Change  Column Row Layer    Maximum-Flux-Residual          L2-NORM 
          0                 1           2             4    7     1      -0.8512298788E-01       4    7    1        -0.4476279671E+01      0.1008312559E+02
          0                 2           2             4    7     1       0.8279980052E-02       4    7    1         0.4476167919E+00      0.1008304582E+01
          0                 3           2             4    7     1      -0.5638375635E-03       4    7    1        -0.3133329469E-01      0.7058142079E-01
          0                 4           1             4    7     1       0.2243561684E-04       4    7    1         0.1281533045E-02      0.2886783434E-02

    ------------------------------------------------
       NWT REQUIRED            4 OUTER ITERATIONS 
       AND A TOTAL OF          7 INNER ITERATIONS.
    ------------------------------------------------

 NO OUTPUT CONTROL FOR STRESS PERIOD   33   TIME STEP    3
 
 SOLVING FOR HEAD 
                                                   Max.-Head-Change                         Max.-Flux-Residual
  Residual-Control   Outer-Iter.   Inner-Iter.     Column Row Layer    Maximum-Head-Change  Column Row Layer    Maximum-Flux-Residual          L2-NORM 
          0                 1           2             4    7     1      -0.8412190015E-01       4    7    1        -0.4422860700E+01      0.1002398391E+02
          0                 2           2             4    7     1       0.8182606647E-02       4    7    1         0.4422752444E+00      0.1002390589E+01
          0                 3           2             4    7     1      -0.5572067454E-03       4    7    1        -0.3095938290E-01      0.7016743991E-01
          0                 4           1             4    7     1       0.2217177098E-04       4    7    1         0.1266240041E-02      0.2869852555E-02

    ------------------------------------------------
       NWT REQUIRED            4 OUTER ITERATIONS 
       AND A TOTAL OF          7 INNER ITERATIONS.
    ------------------------------------------------

 NO OUTPUT CONTROL FOR STRESS PERIOD   33   TIME STEP    4
 
 SOLVING FOR HEAD 
                                                   Max.-Head-Change                         Max.-Flux-Residual
  Residual-Control   Outer-Iter.   Inner-Iter.     Column Row Layer    Maximum-Head-Change  Column Row Layer    Maximum-Flux-Residual          L2-NORM 
          0                 1           2             4    7     1      -0.8314686003E-01       4    7    1        -0.4370843420E+01      0.9966149031E+01
          0                 2           2             4    7     1       0.8087674721E-02       4    7    1         0.4370738515E+00      0.9965740239E+00
          0                 3           2             4    7     1      -0.5507421851E-03       4    7    1        -0.3059528213E-01      0.6976027876E-01
          0                 4           1             4    7     1       0.2191454023E-04       4    7    1         0.1251348324E-02      0.2853198879E-02

    ------------------------------------------------
       NWT REQUIRED            4 OUTER ITERATIONS 
       AND A TOTAL OF          7 INNER ITERATIONS.
    ------------------------------------------------

 NO OUTPUT CONTROL FOR STRESS PERIOD   33   TIME STEP    5
 
 SOLVING FOR HEAD 
                                                   Max.-Head-Change                         Max.-Flux-Residual
  Residual-Control   Outer-Iter.   Inner-Iter.     Column Row Layer    Maximum-Head-Change  Column Row Layer    Maximum-Flux-Residual          L2-NORM 
          0                 1           2             4    7     1      -0.8219722386E-01       4    7    1        -0.4320180713E+01      0.9909582951E+01
          0                 2           2             4    7     1       0.7995397877E-02       4    7    1         0.4320079032E+00      0.9909508567E+00
          0                 3           2             4    7     1      -0.5444584272E-03       4    7    1        -0.3024066250E-01      0.6936665516E-01
          0                 4           1             4    7     1       0.2166450380E-04       4    7    1         0.1236844368E-02      0.2837100767E-02

    ------------------------------------------------
       NWT REQUIRED            4 OUTER ITERATIONS 
       AND A TOTAL OF          7 INNER ITERATIONS.
    ------------------------------------------------

 NO OUTPUT CONTROL FOR STRESS PERIOD   33   TIME STEP    6
 
 SOLVING FOR HEAD 
                                                   Max.-Head-Change                         Max.-Flux-Residual
  Residual-Control   Outer-Iter.   Inner-Iter.     Column Row Layer    Maximum-Head-Change  Column Row Layer    Maximum-Flux-Residual          L2-NORM 
          0                 1           2             4    7     1      -0.8127189524E-01       4    7    1        -0.4270832676E+01      0.9854224978E+01
          0                 2           2             4    7     1       0.7905393156E-02       4    7    1         0.4270734079E+00      0.9854152078E+00
          0                 3           2             4    7     1      -0.5383293949E-03       4    7    1        -0.2989524475E-01      0.6897915786E-01
          0                 4           1             4    7     1       0.2142062429E-04       4    7    1         0.1222716783E-02      0.2821251370E-02

    ------------------------------------------------
       NWT REQUIRED            4 OUTER ITERATIONS 
       AND A TOTAL OF          7 INNER ITERATIONS.
    ------------------------------------------------

 NO OUTPUT CONTROL FOR STRESS PERIOD   33   TIME STEP    7
 
 SOLVING FOR HEAD 
                                                   Max.-Head-Change                         Max.-Flux-Residual
  Residual-Control   Outer-Iter.   Inner-Iter.     Column Row Layer    Maximum-Head-Change  Column Row Layer    Maximum-Flux-Residual          L2-NORM 
          0                 1           2             4    7     1      -0.8037021585E-01       4    7    1        -0.4222759092E+01      0.9799997084E+01
          0                 2           2             4    7     1       0.7817689241E-02       4    7    1         0.4222663450E+00      0.9800314548E+00
          0                 3           2             4    7     1      -0.5323570411E-03       4    7    1        -0.2955874741E-01      0.6860229076E-01
          0                 4           1             4    7     1       0.2118297858E-04       4    7    1         0.1208954028E-02      0.2805837703E-02

    ------------------------------------------------
       NWT REQUIRED            4 OUTER ITERATIONS 
       AND A TOTAL OF          7 INNER ITERATIONS.
    ------------------------------------------------

 NO OUTPUT CONTROL FOR STRESS PERIOD   33   TIME STEP    8
 
 SOLVING FOR HEAD 
                                                   Max.-Head-Change                         Max.-Flux-Residual
  Residual-Control   Outer-Iter.   Inner-Iter.     Column Row Layer    Maximum-Head-Change  Column Row Layer    Maximum-Flux-Residual          L2-NORM 
          0                 1           2             4    7     1      -0.7949110311E-01       4    7    1        -0.4175901635E+01      0.9746839857E+01
          0                 2           2             4    7     1       0.7732179130E-02       4    7    1         0.4175808825E+00      0.9746771619E+00
          0                 3           2             4    7     1      -0.5265340791E-03       4    7    1        -0.2923076221E-01      0.6822748978E-01
          0                 4           1             4    7     1       0.2095127796E-04       4    7    1         0.1195539438E-02      0.2790507178E-02

    ------------------------------------------------
       NWT REQUIRED            4 OUTER ITERATIONS 
       AND A TOTAL OF          7 INNER ITERATIONS.
    ------------------------------------------------

 NO OUTPUT CONTROL FOR STRESS PERIOD   33   TIME STEP    9
 
 SOLVING FOR HEAD 
                                                   Max.-Head-Change                         Max.-Flux-Residual
  Residual-Control   Outer-Iter.   Inner-Iter.     Column Row Layer    Maximum-Head-Change  Column Row Layer    Maximum-Flux-Residual          L2-NORM 
          0                 1           2             4    7     1      -0.7863389167E-01       4    7    1        -0.4130224465E+01      0.9694628758E+01
          0                 2           2             4    7     1       0.7648799813E-02       4    7    1         0.4130134368E+00      0.9694561842E+00
          0                 3           2             4    7     1      -0.5208562180E-03       4    7    1        -0.2891103831E-01      0.6786201992E-01
          0                 4           1             4    7     1       0.2072535086E-04       4    7    1         0.1182462738E-02      0.2775559474E-02

    ------------------------------------------------
       NWT REQUIRED            4 OUTER ITERATIONS 
       AND A TOTAL OF          7 INNER ITERATIONS.
    ------------------------------------------------

 NO OUTPUT CONTROL FOR STRESS PERIOD   33   TIME STEP   10
 
 SOLVING FOR HEAD 
                                                   Max.-Head-Change                         Max.-Flux-Residual
  Residual-Control   Outer-Iter.   Inner-Iter.     Column Row Layer    Maximum-Head-Change  Column Row Layer    Maximum-Flux-Residual          L2-NORM 
          0                 1           2             4    7     1      -0.7779769877E-01       4    7    1        -0.4085680027E+01      0.9643435378E+01
          0                 2           2             4    7     1       0.7567464865E-02       4    7    1         0.4085592534E+00      0.9643369709E+00
          0                 3           2             4    7     1      -0.5153175721E-03       4    7    1        -0.2859924288E-01      0.6750367663E-01
          0                 4           1             4    7     1       0.2050496290E-04       4    7    1         0.1169710289E-02      0.2760911534E-02

    ------------------------------------------------
       NWT REQUIRED            4 OUTER ITERATIONS 
       AND A TOTAL OF          7 INNER ITERATIONS.
    ------------------------------------------------

 NO OUTPUT CONTROL FOR STRESS PERIOD   33   TIME STEP   11
 
 SOLVING FOR HEAD 
                                                   Max.-Head-Change                         Max.-Flux-Residual
  Residual-Control   Outer-Iter.   Inner-Iter.     Column Row Layer    Maximum-Head-Change  Column Row Layer    Maximum-Flux-Residual          L2-NORM 
          0                 1           2             4    7     1      -0.7698191576E-01       4    7    1        -0.4042235539E+01      0.9593220675E+01
          0                 2           2             4    7     1       0.7478141590E-02       4    7    1         0.4035251213E+00      0.9592633774E+00
          0                 3           2             4    7     1      -0.5092348924E-03       4    7    1        -0.2824684701E-01      0.6714851867E-01
          0                 4           1             4    7     1       0.2026292796E-04       4    7    1         0.1155297299E-02      0.2746378893E-02

    ------------------------------------------------
       NWT REQUIRED            4 OUTER ITERATIONS 
       AND A TOTAL OF          7 INNER ITERATIONS.
    ------------------------------------------------

 NO OUTPUT CONTROL FOR STRESS PERIOD   33   TIME STEP   12
 
 SOLVING FOR HEAD 
                                                   Max.-Head-Change                         Max.-Flux-Residual
  Residual-Control   Outer-Iter.   Inner-Iter.     Column Row Layer    Maximum-Head-Change  Column Row Layer    Maximum-Flux-Residual          L2-NORM 
          0                 1           2             4    7     1      -0.7621754459E-01       4    7    1        -0.4000379044E+01      0.9543993103E+01
          0                 2           2             4    7     1       0.7413770967E-02       4    7    1         0.4000299878E+00      0.9543930101E+00
          0                 3           2             4    7     1      -0.5048514697E-03       4    7    1        -0.2800218614E-01      0.6680759398E-01
          0                 4           1             4    7     1       0.2008850734E-04       4    7    1         0.1145290652E-02      0.2732434408E-02

    ------------------------------------------------
       NWT REQUIRED            4 OUTER ITERATIONS 
       AND A TOTAL OF          7 INNER ITERATIONS.
    ------------------------------------------------

 NO OUTPUT CONTROL FOR STRESS PERIOD   33   TIME STEP   13
 
 SOLVING FOR HEAD 
                                                   Max.-Head-Change                         Max.-Flux-Residual
  Residual-Control   Outer-Iter.   Inner-Iter.     Column Row Layer    Maximum-Head-Change  Column Row Layer    Maximum-Flux-Residual          L2-NORM 
          0                 1           2             4    7     1      -0.7546001113E-01       4    7    1        -0.3960125740E+01      0.9495722000E+01
          0                 2           2             4    7     1       0.7340086607E-02       4    7    1         0.3960048601E+00      0.9495659997E+00
          0                 3           2             4    7     1      -0.4998338089E-03       4    7    1        -0.2772042516E-01      0.6646970160E-01
          0                 4           1             4    7     1       0.1988885030E-04       4    7    1         0.1133766636E-02      0.2718614233E-02

    ------------------------------------------------
       NWT REQUIRED            4 OUTER ITERATIONS 
       AND A TOTAL OF          7 INNER ITERATIONS.
    ------------------------------------------------

 NO OUTPUT CONTROL FOR STRESS PERIOD   33   TIME STEP   14
 
 SOLVING FOR HEAD 
                                                   Max.-Head-Change                         Max.-Flux-Residual
  Residual-Control   Outer-Iter.   Inner-Iter.     Column Row Layer    Maximum-Head-Change  Column Row Layer    Maximum-Flux-Residual          L2-NORM 
          0                 1           2             4    7     1      -0.7471913430E-01       4    7    1        -0.3920766142E+01      0.9448339858E+01
          0                 2           2             4    7     1       0.7268022378E-02       4    7    1         0.3920690959E+00      0.9448279062E+00
          0                 3           2             4    7     1      -0.4949264739E-03       4    7    1        -0.2744491971E-01      0.6613803458E-01
          0                 4           1             4    7     1       0.1969358283E-04       4    7    1         0.1122498447E-02      0.2705050459E-02

    ------------------------------------------------
       NWT REQUIRED            4 OUTER ITERATIONS 
       AND A TOTAL OF          7 INNER ITERATIONS.
    ------------------------------------------------

 NO OUTPUT CONTROL FOR STRESS PERIOD   33   TIME STEP   15
 
 SOLVING FOR HEAD 
                                                   Max.-Head-Change                         Max.-Flux-Residual
  Residual-Control   Outer-Iter.   Inner-Iter.     Column Row Layer    Maximum-Head-Change  Column Row Layer    Maximum-Flux-Residual          L2-NORM 
          0                 1           2             4    7     1      -0.7399433472E-01       4    7    1        -0.3882269270E+01      0.9401809565E+01
          0                 2           2             4    7     1       0.7197521926E-02       4    7    1         0.3882195974E+00      0.9401749805E+00
          0                 3           2             4    7     1      -0.4901256275E-03       4    7    1        -0.2717545291E-01      0.6581232652E-01
          0                 4           1             4    7     1       0.1950255299E-04       4    7    1         0.1111477264E-02      0.2691728113E-02

    ------------------------------------------------
       NWT REQUIRED            4 OUTER ITERATIONS 
       AND A TOTAL OF          7 INNER ITERATIONS.
    ------------------------------------------------

 NO OUTPUT CONTROL FOR STRESS PERIOD   33   TIME STEP   16
 
 SOLVING FOR HEAD 
                                                   Max.-Head-Change                         Max.-Flux-Residual
  Residual-Control   Outer-Iter.   Inner-Iter.     Column Row Layer    Maximum-Head-Change  Column Row Layer    Maximum-Flux-Residual          L2-NORM 
          0                 1           2             4    7     1      -0.7328509114E-01       4    7    1        -0.3844606990E+01      0.9356110519E+01
          0                 2           2             4    7     1       0.7128534553E-02       4    7    1         0.3844535516E+00      0.9356051794E+00
          0                 3           2             4    7     1      -0.4854278165E-03       4    7    1        -0.2691182786E-01      0.6549243939E-01
          0                 4           1             4    7     1       0.1931562284E-04       4    7    1         0.1100694983E-02      0.2678647231E-02

    ------------------------------------------------
       NWT REQUIRED            4 OUTER ITERATIONS 
       AND A TOTAL OF          7 INNER ITERATIONS.
    ------------------------------------------------

 NO OUTPUT CONTROL FOR STRESS PERIOD   33   TIME STEP   17
 
 SOLVING FOR HEAD 
                                                   Max.-Head-Change                         Max.-Flux-Residual
  Residual-Control   Outer-Iter.   Inner-Iter.     Column Row Layer    Maximum-Head-Change  Column Row Layer    Maximum-Flux-Residual          L2-NORM 
          0                 1           2             4    7     1      -0.7259087959E-01       4    7    1        -0.3807751321E+01      0.9311211808E+01
          0                 2           2             4    7     1       0.7061009293E-02       4    7    1         0.3807681605E+00      0.9311154052E+00
          0                 3           2             4    7     1      -0.4808295713E-03       4    7    1        -0.2665384870E-01      0.6517815339E-01
          0                 4           1             4    7     1       0.1913265434E-04       4    7    1         0.1090143629E-02      0.2665789625E-02

    ------------------------------------------------
       NWT REQUIRED            4 OUTER ITERATIONS 
       AND A TOTAL OF          7 INNER ITERATIONS.
    ------------------------------------------------

 NO OUTPUT CONTROL FOR STRESS PERIOD   33   TIME STEP   18
 
 SOLVING FOR HEAD 
                                                   Max.-Head-Change                         Max.-Flux-Residual
  Residual-Control   Outer-Iter.   Inner-Iter.     Column Row Layer    Maximum-Head-Change  Column Row Layer    Maximum-Flux-Residual          L2-NORM 
          0                 1           2             4    7     1      -0.7191133243E-01       4    7    1        -0.3771682321E+01      0.9267098902E+01
          0                 2           2             4    7     1       0.6994910390E-02       4    7    1         0.3771614303E+00      0.9267042135E+00
          0                 3           2             4    7     1      -0.4763284566E-03       4    7    1        -0.2640137589E-01      0.6486937060E-01
          0                 4           1             4    7     1       0.1895355091E-04       4    7    1         0.1079817479E-02      0.2653160012E-02

    ------------------------------------------------
       NWT REQUIRED            4 OUTER ITERATIONS 
       AND A TOTAL OF          7 INNER ITERATIONS.
    ------------------------------------------------

 NO OUTPUT CONTROL FOR STRESS PERIOD   33   TIME STEP   19
 
 SOLVING FOR HEAD 
                                                   Max.-Head-Change                         Max.-Flux-Residual
  Residual-Control   Outer-Iter.   Inner-Iter.     Column Row Layer    Maximum-Head-Change  Column Row Layer    Maximum-Flux-Residual          L2-NORM 
          0                 1           2             4    7     1      -0.7124609419E-01       4    7    1        -0.3736380925E+01      0.9223760510E+01
          0                 2           2             4    7     1       0.6930203268E-02       4    7    1         0.3736314546E+00      0.9223704638E+00
          0                 3           2             4    7     1      -0.4719221178E-03       4    7    1        -0.2615427593E-01      0.6456600355E-01
          0                 4           1             4    7     1       0.1877821836E-04       4    7    1         0.1069711081E-02      0.2640753758E-02

    ------------------------------------------------
       NWT REQUIRED            4 OUTER ITERATIONS 
       AND A TOTAL OF          7 INNER ITERATIONS.
    ------------------------------------------------

 NO OUTPUT CONTROL FOR STRESS PERIOD   33   TIME STEP   20
 
 SOLVING FOR HEAD 
                                                   Max.-Head-Change                         Max.-Flux-Residual
  Residual-Control   Outer-Iter.   Inner-Iter.     Column Row Layer    Maximum-Head-Change  Column Row Layer    Maximum-Flux-Residual          L2-NORM 
          0                 1           2             4    7     1      -0.7059440189E-01       4    7    1        -0.3701806070E+01      0.9181154176E+01
          0                 2           2             4    7     1       0.6866813716E-02       4    7    1         0.3701741275E+00      0.9181099284E+00
          0                 3           2             4    7     1      -0.4676055016E-03       4    7    1        -0.2591226143E-01      0.6426776725E-01
          0                 4           1             4    7     1       0.1860645650E-04       4    7    1         0.1059812680E-02      0.2628553673E-02

    ------------------------------------------------
       NWT REQUIRED            4 OUTER ITERATIONS 
       AND A TOTAL OF          7 INNER ITERATIONS.
    ------------------------------------------------

 NO OUTPUT CONTROL FOR STRESS PERIOD   33   TIME STEP   21
 
 SOLVING FOR HEAD 
                                                   Max.-Head-Change                         Max.-Flux-Residual
  Residual-Control   Outer-Iter.   Inner-Iter.     Column Row Layer    Maximum-Head-Change  Column Row Layer    Maximum-Flux-Residual          L2-NORM 
          0                 1           2             4    7     1      -0.6995596289E-01       4    7    1        -0.3667941779E+01      0.9139278436E+01
          0                 2           2             4    7     1       0.6804713270E-02       4    7    1         0.3667878515E+00      0.9139224443E+00
          0                 3           2             4    7     1      -0.4633766692E-03       4    7    1        -0.2567522056E-01      0.6397464384E-01
          0                 4           1             4    7     1       0.1843818750E-04       4    7    1         0.1050117708E-02      0.2616564927E-02

    ------------------------------------------------
       NWT REQUIRED            4 OUTER ITERATIONS 
       AND A TOTAL OF          7 INNER ITERATIONS.
    ------------------------------------------------

 NO OUTPUT CONTROL FOR STRESS PERIOD   33   TIME STEP   22
 
 SOLVING FOR HEAD 
                                                   Max.-Head-Change                         Max.-Flux-Residual
  Residual-Control   Outer-Iter.   Inner-Iter.     Column Row Layer    Maximum-Head-Change  Column Row Layer    Maximum-Flux-Residual          L2-NORM 
          0                 1           2             4    7     1      -0.6933049154E-01       4    7    1        -0.3634772876E+01      0.9098107218E+01
          0                 2           2             4    7     1       0.6743874147E-02       4    7    1         0.3634711092E+00      0.9098054070E+00
          0                 3           2             4    7     1      -0.4592337293E-03       4    7    1        -0.2544304710E-01      0.6368644914E-01
          0                 4           1             4    7     1       0.1827333606E-04       4    7    1         0.1040621808E-02      0.2604778898E-02

    ------------------------------------------------
       NWT REQUIRED            4 OUTER ITERATIONS 
       AND A TOTAL OF          7 INNER ITERATIONS.
    ------------------------------------------------

 NO OUTPUT CONTROL FOR STRESS PERIOD   33   TIME STEP   23
 
 SOLVING FOR HEAD 
                                                   Max.-Head-Change                         Max.-Flux-Residual
  Residual-Control   Outer-Iter.   Inner-Iter.     Column Row Layer    Maximum-Head-Change  Column Row Layer    Maximum-Flux-Residual          L2-NORM 
          0                 1           2             4    7     1      -0.6871752969E-01       4    7    1        -0.3602274464E+01      0.9057627870E+01
          0                 2           2             4    7     1       0.6684251786E-02       4    7    1         0.3602214109E+00      0.9057575560E+00
          0                 3           2             4    7     1      -0.4551736471E-03       4    7    1        -0.2521556677E-01      0.6340309861E-01
          0                 4           1             4    7     1       0.1811178199E-04       4    7    1         0.1031317863E-02      0.2593190225E-02

    ------------------------------------------------
       NWT REQUIRED            4 OUTER ITERATIONS 
       AND A TOTAL OF          7 INNER ITERATIONS.
    ------------------------------------------------

 NO OUTPUT CONTROL FOR STRESS PERIOD   33   TIME STEP   24
 
 SOLVING FOR HEAD 
                                                   Max.-Head-Change                         Max.-Flux-Residual
  Residual-Control   Outer-Iter.   Inner-Iter.     Column Row Layer    Maximum-Head-Change  Column Row Layer    Maximum-Flux-Residual          L2-NORM 
          0                 1           2             4    7     1      -0.6811655264E-01       4    7    1        -0.3570418427E+01      0.9017816517E+01
          0                 2           2             4    7     1       0.6625795150E-02       4    7    1         0.3570359456E+00      0.9017765029E+00
          0                 3           2             4    7     1      -0.4511929466E-03       4    7    1        -0.2499258278E-01      0.6312442345E-01
          0                 4           1             4    7     1       0.1795338610E-04       4    7    1         0.1022197803E-02      0.2581793857E-02

    ------------------------------------------------
       NWT REQUIRED            4 OUTER ITERATIONS 
       AND A TOTAL OF          7 INNER ITERATIONS.
    ------------------------------------------------

 NO OUTPUT CONTROL FOR STRESS PERIOD   33   TIME STEP   25
 
 SOLVING FOR HEAD 
                                                   Max.-Head-Change                         Max.-Flux-Residual
  Residual-Control   Outer-Iter.   Inner-Iter.     Column Row Layer    Maximum-Head-Change  Column Row Layer    Maximum-Flux-Residual          L2-NORM 
          0                 1           2             4    7     1      -0.6752744213E-01       4    7    1        -0.3539198268E+01      0.8978665671E+01
          0                 2           2             4    7     1       0.6568492737E-02       4    7    1         0.3539140633E+00      0.8978615042E+00
          0                 3           2             4    7     1      -0.4472908458E-03       4    7    1        -0.2477404968E-01      0.6285037581E-01
          0                 4           1             4    7     1       0.1779811811E-04       4    7    1         0.1013259808E-02      0.2570586986E-02

    ------------------------------------------------
       NWT REQUIRED            4 OUTER ITERATIONS 
       AND A TOTAL OF          7 INNER ITERATIONS.
    ------------------------------------------------

 NO OUTPUT CONTROL FOR STRESS PERIOD   33   TIME STEP   26
 
 SOLVING FOR HEAD 
                                                   Max.-Head-Change                         Max.-Flux-Residual
  Residual-Control   Outer-Iter.   Inner-Iter.     Column Row Layer    Maximum-Head-Change  Column Row Layer    Maximum-Flux-Residual          L2-NORM 
          0                 1           2             4    7     1      -0.6694968058E-01       4    7    1        -0.3508586192E+01      0.8940154011E+01
          0                 2           2             4    7     1       0.6512294205E-02       4    7    1         0.3508529852E+00      0.8940104300E+00
          0                 3           2             4    7     1      -0.4434639150E-03       4    7    1        -0.2455977288E-01      0.6258079840E-01
          0                 4           1             4    7     1       0.1764584044E-04       4    7    1         0.1004495862E-02      0.2559558255E-02

    ------------------------------------------------
       NWT REQUIRED            4 OUTER ITERATIONS 
       AND A TOTAL OF          7 INNER ITERATIONS.
    ------------------------------------------------

 NO OUTPUT CONTROL FOR STRESS PERIOD   33   TIME STEP   27
 
 SOLVING FOR HEAD 
                                                   Max.-Head-Change                         Max.-Flux-Residual
  Residual-Control   Outer-Iter.   Inner-Iter.     Column Row Layer    Maximum-Head-Change  Column Row Layer    Maximum-Flux-Residual          L2-NORM 
          0                 1           2             4    7     1      -0.6638291144E-01       4    7    1        -0.3478562584E+01      0.8902273304E+01
          0                 2           2             4    7     1       0.6457164875E-02       4    7    1         0.3478507496E+00      0.8902224385E+00
          0                 3           2             4    7     1      -0.4397097939E-03       4    7    1        -0.2434961511E-01      0.6231563612E-01
          0                 4           1             4    7     1       0.1749646088E-04       4    7    1         0.9959004080E-03      0.2548713565E-02

    ------------------------------------------------
       NWT REQUIRED            4 OUTER ITERATIONS 
       AND A TOTAL OF          7 INNER ITERATIONS.
    ------------------------------------------------

 NO OUTPUT CONTROL FOR STRESS PERIOD   33   TIME STEP   28
 
 SOLVING FOR HEAD 
                                                   Max.-Head-Change                         Max.-Flux-Residual
  Residual-Control   Outer-Iter.   Inner-Iter.     Column Row Layer    Maximum-Head-Change  Column Row Layer    Maximum-Flux-Residual          L2-NORM 
          0                 1           2             4    7     1      -0.6582693626E-01       4    7    1        -0.3449117125E+01      0.8864999783E+01
          0                 2           2             4    7     1       0.6403085443E-02       4    7    1         0.3449063251E+00      0.8864951593E+00
          0                 3           2             4    7     1      -0.4360271676E-03       4    7    1        -0.2414350416E-01      0.6205472573E-01
          0                 4           1             4    7     1       0.1734992567E-04       4    7    1         0.9874704581E-03      0.2538040946E-02

    ------------------------------------------------
       NWT REQUIRED            4 OUTER ITERATIONS 
       AND A TOTAL OF          7 INNER ITERATIONS.
    ------------------------------------------------

 NO OUTPUT CONTROL FOR STRESS PERIOD   33   TIME STEP   29
 
 SOLVING FOR HEAD 
                                                   Max.-Head-Change                         Max.-Flux-Residual
  Residual-Control   Outer-Iter.   Inner-Iter.     Column Row Layer    Maximum-Head-Change  Column Row Layer    Maximum-Flux-Residual          L2-NORM 
          0                 1           2             4    7     1      -0.6528124845E-01       4    7    1        -0.3420222232E+01      0.8828325400E+01
          0                 2           2             4    7     1       0.6350006636E-02       4    7    1         0.3420169532E+00      0.8828277930E+00
          0                 3           2             4    7     1      -0.4324126805E-03       4    7    1        -0.2394124693E-01      0.6179800871E-01
          0                 4           1             4    7     1       0.1720610205E-04       4    7    1         0.9791981240E-03      0.2527541683E-02

    ------------------------------------------------
       NWT REQUIRED            4 OUTER ITERATIONS 
       AND A TOTAL OF          7 INNER ITERATIONS.
    ------------------------------------------------

 NO OUTPUT CONTROL FOR STRESS PERIOD   33   TIME STEP   30



 STREAM LISTING     PERIOD     33   STEP       30

 LAYER ROW COL. STREAM  RCH.  FLOW INTO     FLOW TO   FLOW OUT OF   OVRLND.     DIRECT     STREAM       STREAM     STREAM     STREAM   STREAMBED  STREAMBED
                SEG.NO.  NO.  STRM. RCH.    AQUIFER    STRM. RCH.    RUNOFF     PRECIP       ET          HEAD       DEPTH      WIDTH   CONDCTNC.   GRADIENT

   1    1    1     1     1    1.9000E+01  2.1427E-01   1.8786E+01  0.000E+00  0.000E+00  0.000E+00  1.09413E+03  1.082E+00  1.166E+01  5.249E-02  1.361E+00
   1    2    2     1     2    1.8786E+01  3.3054E-01   1.8455E+01  0.000E+00  0.000E+00  0.000E+00  1.08914E+03  1.077E+00  1.158E+01  8.107E-02  1.359E+00
   1    3    3     1     3    1.8455E+01  2.8064E-01   1.8175E+01  0.000E+00  0.000E+00  0.000E+00  1.08349E+03  1.072E+00  1.149E+01  6.892E-02  1.357E+00
   1    3    4     1     4    1.8175E+01  2.5740E-01   1.7917E+01  0.000E+00  0.000E+00  0.000E+00  1.07848E+03  1.068E+00  1.140E+01  6.328E-02  1.356E+00
   1    4    5     2     1    1.5917E+01  3.0542E-01   1.5612E+01  0.000E+00  0.000E+00  0.000E+00  1.07285E+03  9.157E-01  1.200E+01  7.800E-02  1.305E+00
   1    5    6     2     2    1.5612E+01  2.3438E-01   1.5377E+01  0.000E+00  0.000E+00  0.000E+00  1.06742E+03  9.063E-01  1.200E+01  6.000E-02  1.302E+00
   1    6    6     2     3    1.5377E+01  2.3388E-01   1.5143E+01  0.000E+00  0.000E+00  0.000E+00  1.06269E+03  8.980E-01  1.200E+01  6.000E-02  1.299E+00
   1    7    6     2     4    1.5143E+01  2.3338E-01   1.4910E+01  0.000E+00  0.000E+00  0.000E+00  1.05797E+03  8.897E-01  1.200E+01  6.000E-02  1.297E+00
   1    8    6     2     5    1.4910E+01  2.3289E-01   1.4677E+01  0.000E+00  0.000E+00  0.000E+00  1.05324E+03  8.814E-01  1.200E+01  6.000E-02  1.294E+00
   1    3    5     3     1    2.0000E+00  2.8252E-01   1.7175E+00  0.000E+00  0.000E+00  0.000E+00  1.07555E+03  1.909E+00  9.636E+00  7.227E-02  1.955E+00
   1    3    6     3     2    1.7175E+00  2.4905E-01   1.4684E+00  0.000E+00  0.000E+00  0.000E+00  1.07264E+03  1.727E+00  8.909E+00  6.682E-02  1.864E+00
   1    3    7     3     3    1.4684E+00  1.9718E-01   1.2712E+00  0.000E+00  0.000E+00  0.000E+00  1.06987E+03  1.555E+00  8.218E+00  5.547E-02  1.777E+00
   1    4    8     3     4    1.2712E+00  2.2567E-01   1.0456E+00  0.000E+00  0.000E+00  0.000E+00  1.06682E+03  1.364E+00  7.455E+00  6.709E-02  1.682E+00
   1    5    8     3     5    1.0456E+00  1.5790E-01   8.8768E-01  0.000E+00  0.000E+00  0.000E+00  1.06362E+03  1.164E+00  6.655E+00  4.991E-02  1.582E+00
   1    6    8     3     6    8.8768E-01  5.5980E-02   8.3170E-01  0.000E+00  0.000E+00  0.000E+00  1.06158E+03  1.036E+00  6.145E+00  1.844E-02  1.518E+00
   1    5   10     4     1    1.0000E+01  9.0919E-02   9.9091E+00  0.000E+00  0.000E+00  0.000E+00  1.07836E+03  6.368E-01  1.000E+01  2.500E-02  1.212E+00
   1    5    9     4     2    9.9091E+00  1.8158E-01   9.7275E+00  0.000E+00  0.000E+00  0.000E+00  1.07154E+03  6.315E-01  1.000E+01  5.000E-02  1.211E+00
   1    6    8     4     3    9.7275E+00  1.2689E-01   9.6006E+00  0.000E+00  0.000E+00  0.000E+00  1.06381E+03  6.256E-01  1.000E+01  3.500E-02  1.209E+00
   1    6    8     5     1    1.0432E+01  2.2686E-01   1.0205E+01  0.000E+00  0.000E+00  0.000E+00  1.05868E+03  6.790E-01  1.542E+01  6.166E-02  1.226E+00
   1    7    7     5     2    1.0205E+01  2.7894E-01   9.9265E+00  0.000E+00  0.000E+00  0.000E+00  1.05417E+03  6.732E-01  1.519E+01  7.594E-02  1.224E+00
   1    8    7     5     3    9.9265E+00  1.9221E-01   9.7343E+00  0.000E+00  0.000E+00  0.000E+00  1.04992E+03  6.676E-01  1.497E+01  5.241E-02  1.223E+00
   1    8    6     5     4    9.7343E+00  1.3577E-01   9.5985E+00  0.000E+00  0.000E+00  0.000E+00  1.04691E+03  6.637E-01  1.482E+01  3.706E-02  1.221E+00
   1    9    6     6     1    2.4276E+01  2.5176E-01   2.4024E+01  0.000E+00  0.000E+00  0.000E+00  1.04392E+03  1.196E+00  1.200E+01  6.000E-02  1.399E+00
   1   10    7     6     2    2.4024E+01  2.5131E-01   2.3773E+01  0.000E+00  0.000E+00  0.000E+00  1.03937E+03  1.188E+00  1.200E+01  6.000E-02  1.396E+00
   1   11    7     6     3    2.3773E+01  2.5086E-01   2.3522E+01  0.000E+00  0.000E+00  0.000E+00  1.03482E+03  1.181E+00  1.200E+01  6.000E-02  1.394E+00
   1   12    7     6     4    2.3522E+01  2.5041E-01   2.3271E+01  0.000E+00  0.000E+00  0.000E+00  1.03026E+03  1.173E+00  1.200E+01  6.000E-02  1.391E+00
   1   13    7     6     5    2.3271E+01  6.7944E-03   2.3265E+01  0.000E+00  0.000E+00  0.000E+00  1.02708E+03  1.170E+00  1.200E+01  2.400E-02  9.437E-02
   1   14    9     7     1    1.5000E+02  1.3512E+00   1.4865E+02  0.000E+00  0.000E+00  0.000E+00  1.03987E+03  2.288E+00  5.529E+01  5.593E-01  8.053E-01
   1   13    8     7     2    1.4865E+02  1.9126E+00   1.4674E+02  0.000E+00  0.000E+00  0.000E+00  1.03478E+03  2.279E+00  5.526E+01  6.148E-01  1.037E+00
   1   13    7     7     3    1.4674E+02  1.6157E+00   1.4512E+02  0.000E+00  0.000E+00  0.000E+00  1.02969E+03  2.270E+00  5.521E+01  5.584E-01  9.645E-01
   1   13    6     8     1    1.6839E+02  1.0551E+00   1.6733E+02  0.000E+00  0.000E+00  0.000E+00  1.02481E+03  2.938E+00  4.260E+01  4.341E-01  8.101E-01
   1   13    5     8     2    1.6733E+02  2.9942E-01   1.6703E+02  0.000E+00  0.000E+00  0.000E+00  1.01856E+03  2.934E+00  4.254E+01  4.335E-01  2.302E-01
   1   13    4     8     3    1.6703E+02 -2.0237E+00   1.6905E+02  0.000E+00  0.000E+00  0.000E+00  1.01231E+03  2.939E+00  4.262E+01  4.343E+00 -1.553E-01
   1   13    3     8     4    1.6905E+02 -3.4462E+00   1.7250E+02  0.000E+00  0.000E+00  0.000E+00  1.00608E+03  2.957E+00  4.288E+01  4.370E+00 -2.629E-01
   1   13    2     8     5    1.7250E+02 -2.5272E+00   1.7503E+02  0.000E+00  0.000E+00  0.000E+00  9.99852E+02  2.977E+00  4.316E+01  4.398E+00 -1.915E-01
   1   13    1     8     6    1.7503E+02 -1.9699E+00   1.7700E+02  0.000E+00  0.000E+00  0.000E+00  9.94866E+02  2.991E+00  4.337E+01  2.652E+00 -2.476E-01





UNSATURATED ZONE PACKAGE VOLUMETRIC BUDGET FOR  TIME STEP    30 STRESS PERIOD   33
  ------------------------------------------------------------------------------



     CUMULATIVE VOLUMES      L**3       RATES FOR THIS TIME STEP      L**3/T
     ------------------                 ------------------------

           IN:                                      IN:
           ---                                      ---
        INFILTRATION =  1537426395.8738          INFILTRATION =          52.8149

          OUT:                                     OUT:
          ----                                     ----
              UZF ET =  1445617075.8729                UZF ET =          52.8575
        UZF RECHARGE =      883691.8009          UZF RECHARGE =           0.0002

            IN - OUT =    90925628.1999              IN - OUT =      -4.2808E-02

          STORAGE:                                 STORAGE:
          --------                                 --------
      STORAGE CHANGE =    90927261.0276        STORAGE CHANGE =      -4.2809E-02

 PERCENT DISCREPANCY IS DIFFERENCE BETWEEN IN-OUT MINUS CHANGE IN STORAGE
 DIVIDED BY THE AVERAGE OF IN AND OUT TIMES 100

 PERCENT DISCREPANCY =          -0.00     PERCENT DISCREPANCY =           0.00






1
  VOLUMETRIC BUDGET FOR ENTIRE MODEL AT END OF TIME STEP   30, STRESS PERIOD  33
  ------------------------------------------------------------------------------

     CUMULATIVE VOLUMES      L**3       RATES FOR THIS TIME STEP      L**3/T
     ------------------                 ------------------------

           IN:                                      IN:
           ---                                      ---
               AG WELLS  =  1166418432.0000                 AG WELLS  =          48.4074
      DIVERSION SEGMENTS =           0.0000        DIVERSION SEGMENTS =           0.0000
           GW IRRIGATION =           0.0000             GW IRRIGATION =           0.0000
           SW IRRIGATION =           0.0000             SW IRRIGATION =           0.0000
        SYSTEM LOSSES GW =           0.0000          SYSTEM LOSSES GW =           0.0000
        SYSTEM LOSSES SW =           0.0000          SYSTEM LOSSES SW =           0.0000

                TOTAL IN =  1166418432.0000                  TOTAL IN =          48.4074

          OUT:                                     OUT:
          ----                                     ----
               AG WELLS  =           0.0000                 AG WELLS  =           0.0000
      DIVERSION SEGMENTS =           0.0000        DIVERSION SEGMENTS =           0.0000
           GW IRRIGATION =  1166418432.0000             GW IRRIGATION =          48.4074
           SW IRRIGATION =           0.0000             SW IRRIGATION =           0.0000
        SYSTEM LOSSES GW =           0.0000          SYSTEM LOSSES GW =           0.0000
        SYSTEM LOSSES SW =           0.0000          SYSTEM LOSSES SW =           0.0000

               TOTAL OUT =  1166418432.0000                 TOTAL OUT =          48.4074

                IN - OUT =           0.0000                  IN - OUT =           0.0000

     PERCENT DISCREPANCY =           0.00         PERCENT DISCREPANCY =           0.00



1
  VOLUMETRIC BUDGET FOR ENTIRE MODEL AT END OF TIME STEP   30, STRESS PERIOD  33
  ------------------------------------------------------------------------------

     CUMULATIVE VOLUMES      L**3       RATES FOR THIS TIME STEP      L**3/T
     ------------------                 ------------------------

           IN:                                      IN:
           ---                                      ---
             STORAGE     =  1487570048.0000               STORAGE     =          46.4722
       CONSTANT HEAD     =           0.0000         CONSTANT HEAD     =           0.0000
     HEAD DEP BOUNDS     =    24067430.0000       HEAD DEP BOUNDS     =           0.2868
      STREAM LEAKAGE     =  1033697344.0000        STREAM LEAKAGE     =          11.9694
        UZF RECHARGE     =      883691.9375          UZF RECHARGE     =       2.0157E-04
               GW ET     =           0.0000                 GW ET     =           0.0000
     SURFACE LEAKAGE     =           0.0000       SURFACE LEAKAGE     =           0.0000
           AG WELLS      =           0.0000             AG WELLS      =           0.0000

                TOTAL IN =  2546218496.0000                  TOTAL IN =          58.7286

          OUT:                                     OUT:
          ----                                     ----
             STORAGE     =   468503904.0000               STORAGE     =       6.5149E-02
       CONSTANT HEAD     =           0.0000         CONSTANT HEAD     =           0.0000
     HEAD DEP BOUNDS     =    24672548.0000       HEAD DEP BOUNDS     =           0.2891
      STREAM LEAKAGE     =   869305280.0000        STREAM LEAKAGE     =           9.9671
        UZF RECHARGE     =           0.0000          UZF RECHARGE     =           0.0000
               GW ET     =    17319432.0000                 GW ET     =           0.0000
     SURFACE LEAKAGE     =           0.0000       SURFACE LEAKAGE     =           0.0000
           AG WELLS      =  1166418432.0000             AG WELLS      =          48.4074

               TOTAL OUT =  2546219520.0000                 TOTAL OUT =          58.7288

                IN - OUT =       -1024.0000                  IN - OUT =      -1.6022E-04

     PERCENT DISCREPANCY =          -0.00         PERCENT DISCREPANCY =          -0.00






         TIME SUMMARY AT END OF TIME STEP   30 IN STRESS PERIOD   33
                    SECONDS     MINUTES      HOURS       DAYS        YEARS
                    -----------------------------------------------------------
   TIME STEP LENGTH  87667.      1461.1      24.352      1.0147     2.77799E-03
 STRESS PERIOD TIME 2.63000E+06  43833.      730.56      30.440     8.33397E-02
         TOTAL TIME 8.42463E+07 1.40410E+06  23402.      975.07      2.6696    
1
1
                            STRESS PERIOD NO.   34, LENGTH =   2630000.    
                            -----------------------------------------------

                              NUMBER OF TIME STEPS =    30

                               MULTIPLIER FOR DELT =     1.000

                            INITIAL TIME STEP SIZE =   87666.66    

 REUSING NON-PARAMETER GHB CELLS FROM LAST STRESS PERIOD

      2 GHB CELLS

 REUSING STREAM SEGMENT DATA FROM LAST STRESS PERIOD



            AREAL INFILTRATION RATE
 READING ON UNIT   19 WITH FORMAT: (10F4.0)            

            1           2           3           4           5           6           7           8           9          10
 ........................................................................................................................
   1   1.2000E-09   0.000       0.000       0.000       0.000       0.000       0.000       0.000       0.000       0.000    
   2   2.1000E-09  2.0000E-09  8.0000E-10  8.5000E-09   0.000       0.000       0.000       0.000       0.000       0.000    
   3   5.0000E-10  1.1000E-09  8.8000E-09  5.5000E-09   0.000       0.000       0.000       0.000       0.000       0.000    
   4   8.5000E-09  1.1000E-09  1.1000E-09  1.1000E-09  2.0000E-09   0.000       0.000       0.000       0.000       0.000    
   5   8.5000E-09  1.1000E-09  1.1000E-09  1.1000E-09  1.1000E-09   0.000       0.000       0.000       0.000       0.000    
   6   8.5000E-09  5.2000E-09  2.1000E-09  1.1000E-09  1.5000E-09   0.000       0.000       0.000       0.000       0.000    
   7   8.5000E-09  5.2000E-09  2.1000E-09  1.2000E-09  2.0000E-09   0.000       0.000       0.000       0.000       0.000    
   8   5.0000E-10  5.2000E-09  2.1000E-09  1.2000E-09  5.0000E-09   0.000       0.000       0.000       0.000       0.000    
   9   5.0000E-10  5.2000E-09  2.1000E-09  1.2000E-09  5.0000E-09   0.000       0.000       0.000       0.000       0.000    
  10   5.0000E-10  5.2000E-09  2.1000E-09  1.2000E-09  5.8000E-09   0.000       0.000       0.000       0.000       0.000    
  11   1.0000E-10  1.1000E-09  1.1000E-09  1.2000E-09  5.0000E-09   0.000       0.000       0.000       0.000       0.000    
  12   1.1000E-09  1.1000E-09  1.1000E-09  1.1000E-09  2.0000E-09   0.000       0.000       0.000       0.000       0.000    
  13   1.1000E-09  2.2000E-09  2.2000E-09  2.1000E-09  1.0000E-09   0.000       0.000       0.000       0.000       0.000    
  14   2.0000E-10  5.5000E-09  5.5000E-09  5.2000E-09  1.0000E-09   0.000       0.000       0.000       0.000       0.000    
  15    0.000      8.8000E-09  8.8000E-09   0.000       0.000       0.000       0.000       0.000       0.000       0.000    

                  ET RATE =  7.500000E-08

 USING ET EXTINCTION DEPTH FROM PREVIOUS STRESS PERIOD. CURRENT PERIOD IS:      34

 USING EXTINCTION WATER CONTENT FROM PREVIOUS STRESS PERIOD. CURRENT PERIOD IS:      34

 USING AIR ENTRY PRESSURE FROM PREVIOUS STRESS PERIOD. CURRENT PERIOD IS:      34

 USING ROOT PRESSURE HEAD FROM PREVIOUS STRESS PERIOD. CURRENT PERIOD IS:      34

 USING ROOT ACTIVITY FROM PREVIOUS STRESS PERIOD. CURRENT PERIOD IS:      34

 PROCESSING AG STRESS PERIOD DATA

 READING AG STRESS PERIOD DATA

 READING IRRIGATION WELL

 END PROCESSING AG STRESS PERIOD DATA OPTIONS
 
 SOLVING FOR HEAD 
                                                   Max.-Head-Change                         Max.-Flux-Residual
  Residual-Control   Outer-Iter.   Inner-Iter.     Column Row Layer    Maximum-Head-Change  Column Row Layer    Maximum-Flux-Residual          L2-NORM 
          0                 1           2             5    8     1       0.7067653721E-01       5    8    1         0.3846274337E+01      0.1007442301E+02
          0                 2           2             5    8     1      -0.6874789833E-02       5    8    1        -0.3846198196E+00      0.1007419493E+01
          0                 3           2             5    8     1       0.4681487767E-03       5    8    1         0.2692347104E-01      0.7051960490E-01
          0                 4           1             5    8     1      -0.1862807355E-04       5    8    1        -0.1101171172E-02      0.2884254729E-02

    ------------------------------------------------
       NWT REQUIRED            4 OUTER ITERATIONS 
       AND A TOTAL OF          7 INNER ITERATIONS.
    ------------------------------------------------

 NO OUTPUT CONTROL FOR STRESS PERIOD   34   TIME STEP    1
 
 SOLVING FOR HEAD 
                                                   Max.-Head-Change                         Max.-Flux-Residual
  Residual-Control   Outer-Iter.   Inner-Iter.     Column Row Layer    Maximum-Head-Change  Column Row Layer    Maximum-Flux-Residual          L2-NORM 
          0                 1           2             5    8     1       0.6752837177E-01       5    8    1         0.3671934171E+01      0.9753951465E+01
          0                 2           2             5    8     1      -0.6568566562E-02       5    8    1        -0.3671863147E+00      0.9753745386E+00
          0                 3           2             5    8     1       0.4472960350E-03       5    8    1         0.2570312034E-01      0.6827643502E-01
          0                 4           1             5    8     1      -0.1779832372E-04       5    8    1        -0.1051258773E-02      0.2792508495E-02

    ------------------------------------------------
       NWT REQUIRED            4 OUTER ITERATIONS 
       AND A TOTAL OF          7 INNER ITERATIONS.
    ------------------------------------------------

 NO OUTPUT CONTROL FOR STRESS PERIOD   34   TIME STEP    2
 
 SOLVING FOR HEAD 
                                                   Max.-Head-Change                         Max.-Flux-Residual
  Residual-Control   Outer-Iter.   Inner-Iter.     Column Row Layer    Maximum-Head-Change  Column Row Layer    Maximum-Flux-Residual          L2-NORM 
          0                 1           2             5    8     1       0.6457360505E-01       5    8    1         0.3508425113E+01      0.9450936498E+01
          0                 2           2             5    8     1      -0.6281155122E-02       5    8    1        -0.3508358821E+00      0.9450840655E+00
          0                 3           2             5    8     1       0.4277243145E-03       5    8    1         0.2455858508E-01      0.6615608108E-01
          0                 4           1             5    8     1      -0.1701954664E-04       5    8    1        -0.1004447232E-02      0.2705786509E-02

    ------------------------------------------------
       NWT REQUIRED            4 OUTER ITERATIONS 
       AND A TOTAL OF          7 INNER ITERATIONS.
    ------------------------------------------------

 NO OUTPUT CONTROL FOR STRESS PERIOD   34   TIME STEP    3
 
 SOLVING FOR HEAD 
                                                   Max.-Head-Change                         Max.-Flux-Residual
  Residual-Control   Outer-Iter.   Inner-Iter.     Column Row Layer    Maximum-Head-Change  Column Row Layer    Maximum-Flux-Residual          L2-NORM 
          0                 1           2             5    8     1       0.6179808201E-01       5    8    1         0.3354948579E+01      0.9164104031E+01
          0                 2           2             5    8     1      -0.6011178765E-02       5    8    1        -0.3354886664E+00      0.9163935885E+00
          0                 3           2             5    8     1       0.4093398637E-03       5    8    1         0.2348427537E-01      0.6414773088E-01
          0                 4           1             5    8     1      -0.1628801251E-04       5    8    1        -0.9605079263E-03      0.2623645614E-02

    ------------------------------------------------
       NWT REQUIRED            4 OUTER ITERATIONS 
       AND A TOTAL OF          7 INNER ITERATIONS.
    ------------------------------------------------

 NO OUTPUT CONTROL FOR STRESS PERIOD   34   TIME STEP    4
 
 SOLVING FOR HEAD 
                                                   Max.-Head-Change                         Max.-Flux-Residual
  Residual-Control   Outer-Iter.   Inner-Iter.     Column Row Layer    Maximum-Head-Change  Column Row Layer    Maximum-Flux-Residual          L2-NORM 
          0                 1           2             5    6     1       0.5919152745E-01       5    8    1         0.3210795740E+01      0.8892278261E+01
          0                 2           2             5    6     1      -0.5757632666E-02       5    8    1        -0.3210737880E+00      0.8892126293E+00
          0                 3           2             5    6     1       0.3920743087E-03       5    8    1         0.2247522961E-01      0.6224506437E-01
          0                 4           1             5    6     1      -0.1560096542E-04       5    8    1        -0.9192379255E-03      0.2546252135E-02

    ------------------------------------------------
       NWT REQUIRED            4 OUTER ITERATIONS 
       AND A TOTAL OF          7 INNER ITERATIONS.
    ------------------------------------------------

 NO OUTPUT CONTROL FOR STRESS PERIOD   34   TIME STEP    5
 
 SOLVING FOR HEAD 
                                                   Max.-Head-Change                         Max.-Flux-Residual
  Residual-Control   Outer-Iter.   Inner-Iter.     Column Row Layer    Maximum-Head-Change  Column Row Layer    Maximum-Flux-Residual          L2-NORM 
          0                 1           2             5    7     1       0.5712175811E-01       5    6    1         0.3075930286E+01      0.8634411933E+01
          0                 2           2             5    7     1      -0.5556345148E-02       5    6    1        -0.3075873039E+00      0.8634274591E+00
          0                 3           2             5    7     1       0.3783669392E-03       5    6    1         0.2153117474E-01      0.6044006972E-01
          0                 4           1             5    7     1      -0.1505557478E-04       5    6    1        -0.8806260271E-03      0.2472000805E-02

    ------------------------------------------------
       NWT REQUIRED            4 OUTER ITERATIONS 
       AND A TOTAL OF          7 INNER ITERATIONS.
    ------------------------------------------------

 NO OUTPUT CONTROL FOR STRESS PERIOD   34   TIME STEP    6
 
 SOLVING FOR HEAD 
                                                   Max.-Head-Change                         Max.-Flux-Residual
  Residual-Control   Outer-Iter.   Inner-Iter.     Column Row Layer    Maximum-Head-Change  Column Row Layer    Maximum-Flux-Residual          L2-NORM 
          0                 1           2             5    7     1       0.5584961862E-01       5    7    1         0.2968208765E+01      0.8389509576E+01
          0                 2           2             5    7     1      -0.5432606982E-02       5    7    1        -0.2968183609E+00      0.8389385421E+00
          0                 3           2             5    7     1       0.3699407668E-03       5    7    1         0.2077731804E-01      0.5872583147E-01
          0                 4           1             5    7     1      -0.1472028982E-04       5    7    1        -0.8497933838E-03      0.2401888938E-02

    ------------------------------------------------
       NWT REQUIRED            4 OUTER ITERATIONS 
       AND A TOTAL OF          7 INNER ITERATIONS.
    ------------------------------------------------

 NO OUTPUT CONTROL FOR STRESS PERIOD   34   TIME STEP    7
 
 SOLVING FOR HEAD 
                                                   Max.-Head-Change                         Max.-Flux-Residual
  Residual-Control   Outer-Iter.   Inner-Iter.     Column Row Layer    Maximum-Head-Change  Column Row Layer    Maximum-Flux-Residual          L2-NORM 
          0                 1           2             5    7     1       0.5460243371E-01       5    7    1         0.2902121913E+01      0.8156691141E+01
          0                 2           2             5    7     1      -0.5311295420E-02       5    7    1        -0.2902100487E+00      0.8156578866E+00
          0                 3           2             5    7     1       0.3616798450E-03       5    7    1         0.2031473245E-01      0.5709617091E-01
          0                 4           1             5    7     1      -0.1439158014E-04       5    7    1        -0.8308736149E-03      0.2335235159E-02

    ------------------------------------------------
       NWT REQUIRED            4 OUTER ITERATIONS 
       AND A TOTAL OF          7 INNER ITERATIONS.
    ------------------------------------------------

 NO OUTPUT CONTROL FOR STRESS PERIOD   34   TIME STEP    8
 
 SOLVING FOR HEAD 
                                                   Max.-Head-Change                         Max.-Flux-Residual
  Residual-Control   Outer-Iter.   Inner-Iter.     Column Row Layer    Maximum-Head-Change  Column Row Layer    Maximum-Flux-Residual          L2-NORM 
          0                 1           2             5    7     1       0.5338080684E-01       5    7    1         0.2837326667E+01      0.7935118139E+01
          0                 2           2             5    7     1      -0.5192469265E-02       5    7    1        -0.2837308497E+00      0.7935016603E+00
          0                 3           2             5    7     1       0.3535881773E-03       5    7    1         0.1986118525E-01      0.5554522566E-01
          0                 4           1             5    7     1      -0.1406960531E-04       5    7    1        -0.8123235255E-03      0.2271801693E-02

    ------------------------------------------------
       NWT REQUIRED            4 OUTER ITERATIONS 
       AND A TOTAL OF          7 INNER ITERATIONS.
    ------------------------------------------------

 NO OUTPUT CONTROL FOR STRESS PERIOD   34   TIME STEP    9
 
 SOLVING FOR HEAD 
                                                   Max.-Head-Change                         Max.-Flux-Residual
  Residual-Control   Outer-Iter.   Inner-Iter.     Column Row Layer    Maximum-Head-Change  Column Row Layer    Maximum-Flux-Residual          L2-NORM 
          0                 1           2             4    7     1       0.5253521843E-01       5    7    1         0.2773863024E+01      0.7724037429E+01
          0                 2           2             4    7     1      -0.5110236057E-02       5    7    1        -0.2773847699E+00      0.7723945574E+00
          0                 3           2             4    7     1       0.3479882102E-03       5    7    1         0.1941695678E-01      0.5406771820E-01
          0                 4           1             4    7     1      -0.1384677584E-04       5    7    1        -0.7941545709E-03      0.2211372442E-02

    ------------------------------------------------
       NWT REQUIRED            4 OUTER ITERATIONS 
       AND A TOTAL OF          7 INNER ITERATIONS.
    ------------------------------------------------

 NO OUTPUT CONTROL FOR STRESS PERIOD   34   TIME STEP   10
 
 SOLVING FOR HEAD 
                                                   Max.-Head-Change                         Max.-Flux-Residual
  Residual-Control   Outer-Iter.   Inner-Iter.     Column Row Layer    Maximum-Head-Change  Column Row Layer    Maximum-Flux-Residual          L2-NORM 
          0                 1           2             4    7     1       0.5208228037E-01       4    7    1         0.2729416442E+01      0.7522753367E+01
          0                 2           2             4    7     1      -0.5066181695E-02       4    7    1        -0.2729414625E+00      0.7522670161E+00
          0                 3           2             4    7     1       0.3449882308E-03       4    7    1         0.1910591235E-01      0.5265877460E-01
          0                 4           1             4    7     1      -0.1372740429E-04       4    7    1        -0.7814329053E-03      0.2153745574E-02

    ------------------------------------------------
       NWT REQUIRED            4 OUTER ITERATIONS 
       AND A TOTAL OF          7 INNER ITERATIONS.
    ------------------------------------------------

 NO OUTPUT CONTROL FOR STRESS PERIOD   34   TIME STEP   11
 
 SOLVING FOR HEAD 
                                                   Max.-Head-Change                         Max.-Flux-Residual
  Residual-Control   Outer-Iter.   Inner-Iter.     Column Row Layer    Maximum-Head-Change  Column Row Layer    Maximum-Flux-Residual          L2-NORM 
          0                 1           2             4    7     1       0.5160427323E-01       4    7    1         0.2705887866E+01      0.7330618776E+01
          0                 2           2             4    7     1      -0.5019688329E-02       4    7    1        -0.2705888490E+00      0.7330543526E+00
          0                 3           2             4    7     1       0.3418221690E-03       4    7    1         0.1894122703E-01      0.5131388435E-01
          0                 4           1             4    7     1      -0.1360142373E-04       4    7    1        -0.7746972778E-03      0.2098740437E-02

    ------------------------------------------------
       NWT REQUIRED            4 OUTER ITERATIONS 
       AND A TOTAL OF          7 INNER ITERATIONS.
    ------------------------------------------------

 NO OUTPUT CONTROL FOR STRESS PERIOD   34   TIME STEP   12
 
 SOLVING FOR HEAD 
                                                   Max.-Head-Change                         Max.-Flux-Residual
  Residual-Control   Outer-Iter.   Inner-Iter.     Column Row Layer    Maximum-Head-Change  Column Row Layer    Maximum-Flux-Residual          L2-NORM 
          0                 1           2             4    7     1       0.5110362398E-01       4    7    1         0.2681052020E+01      0.7147055722E+01
          0                 2           2             4    7     1      -0.4970992078E-02       4    7    1        -0.2681054804E+00      0.7146987613E+00
          0                 3           2             4    7     1       0.3385061026E-03       4    7    1         0.1876738911E-01      0.5002898535E-01
          0                 4           1             4    7     1      -0.1346947414E-04       4    7    1        -0.7675872848E-03      0.2046186823E-02

    ------------------------------------------------
       NWT REQUIRED            4 OUTER ITERATIONS 
       AND A TOTAL OF          7 INNER ITERATIONS.
    ------------------------------------------------

 NO OUTPUT CONTROL FOR STRESS PERIOD   34   TIME STEP   13
 
 SOLVING FOR HEAD 
                                                   Max.-Head-Change                         Max.-Flux-Residual
  Residual-Control   Outer-Iter.   Inner-Iter.     Column Row Layer    Maximum-Head-Change  Column Row Layer    Maximum-Flux-Residual          L2-NORM 
          0                 1           2             4    7     1       0.5058287388E-01       4    7    1         0.2655049186E+01      0.6971513806E+01
          0                 2           2             4    7     1      -0.4920340178E-02       4    7    1        -0.2655053875E+00      0.6971452096E+00
          0                 3           2             4    7     1       0.3350568678E-03       4    7    1         0.1858538070E-01      0.4880023211E-01
          0                 4           1             4    7     1      -0.1333222650E-04       4    7    1        -0.7601431585E-03      0.1995931773E-02

    ------------------------------------------------
       NWT REQUIRED            4 OUTER ITERATIONS 
       AND A TOTAL OF          7 INNER ITERATIONS.
    ------------------------------------------------

 NO OUTPUT CONTROL FOR STRESS PERIOD   34   TIME STEP   14
 
 SOLVING FOR HEAD 
                                                   Max.-Head-Change                         Max.-Flux-Residual
  Residual-Control   Outer-Iter.   Inner-Iter.     Column Row Layer    Maximum-Head-Change  Column Row Layer    Maximum-Flux-Residual          L2-NORM 
          0                 1           2             4    7     1       0.5004426222E-01       4    7    1         0.2628003662E+01      0.6803486469E+01
          0                 2           2             4    7     1      -0.4867950487E-02       4    7    1        -0.2628010024E+00      0.6803430520E+00
          0                 3           2             4    7     1       0.3314892995E-03       4    7    1         0.1839607209E-01      0.4762407378E-01
          0                 4           1             4    7     1      -0.1319026968E-04       4    7    1        -0.7524004372E-03      0.1947826309E-02

    ------------------------------------------------
       NWT REQUIRED            4 OUTER ITERATIONS 
       AND A TOTAL OF          7 INNER ITERATIONS.
    ------------------------------------------------

 NO OUTPUT CONTROL FOR STRESS PERIOD   34   TIME STEP   15
 
 SOLVING FOR HEAD 
                                                   Max.-Head-Change                         Max.-Flux-Residual
  Residual-Control   Outer-Iter.   Inner-Iter.     Column Row Layer    Maximum-Head-Change  Column Row Layer    Maximum-Flux-Residual          L2-NORM 
          0                 1           2             4    7     1       0.4948963023E-01       4    7    1         0.2600017697E+01      0.6642512668E+01
          0                 2           2             4    7     1      -0.4814002138E-02       4    7    1        -0.2600025522E+00      0.6642461931E+00
          0                 3           2             4    7     1       0.3278155947E-03       4    7    1         0.1820017910E-01      0.4649728780E-01
          0                 4           1             4    7     1      -0.1304408929E-04       4    7    1        -0.7443883874E-03      0.1901742503E-02

    ------------------------------------------------
       NWT REQUIRED            4 OUTER ITERATIONS 
       AND A TOTAL OF          7 INNER ITERATIONS.
    ------------------------------------------------

 NO OUTPUT CONTROL FOR STRESS PERIOD   34   TIME STEP   16
 
 SOLVING FOR HEAD 
                                                   Max.-Head-Change                         Max.-Flux-Residual
  Residual-Control   Outer-Iter.   Inner-Iter.     Column Row Layer    Maximum-Head-Change  Column Row Layer    Maximum-Flux-Residual          L2-NORM 
          0                 1           2             4    7     1       0.4892107673E-01       4    7    1         0.2571207716E+01      0.6488156605E+01
          0                 2           2             4    7     1      -0.4758699319E-02       4    7    1        -0.2571216813E+00      0.6488110576E+00
          0                 3           2             4    7     1       0.3240496592E-03       4    7    1         0.1799851686E-01      0.4541682239E-01
          0                 4           1             4    7     1      -0.1289423966E-04       4    7    1        -0.7361404030E-03      0.1857549256E-02

    ------------------------------------------------
       NWT REQUIRED            4 OUTER ITERATIONS 
       AND A TOTAL OF          7 INNER ITERATIONS.
    ------------------------------------------------

 NO OUTPUT CONTROL FOR STRESS PERIOD   34   TIME STEP   17
 
 SOLVING FOR HEAD 
                                                   Max.-Head-Change                         Max.-Flux-Residual
  Residual-Control   Outer-Iter.   Inner-Iter.     Column Row Layer    Maximum-Head-Change  Column Row Layer    Maximum-Flux-Residual          L2-NORM 
          0                 1           2             4    7     1       0.4834043730E-01       4    7    1         0.2541675790E+01      0.6340037055E+01
          0                 2           2             4    7     1      -0.4702220611E-02       4    7    1        -0.2541685989E+00      0.6339995223E+00
          0                 3           2             4    7     1       0.3202036521E-03       4    7    1         0.1779179995E-01      0.4438001003E-01
          0                 4           1             4    7     1      -0.1274120331E-04       4    7    1        -0.7276856738E-03      0.1815143808E-02

    ------------------------------------------------
       NWT REQUIRED            4 OUTER ITERATIONS 
       AND A TOTAL OF          7 INNER ITERATIONS.
    ------------------------------------------------

 NO OUTPUT CONTROL FOR STRESS PERIOD   34   TIME STEP   18
 
 SOLVING FOR HEAD 
                                                   Max.-Head-Change                         Max.-Flux-Residual
  Residual-Control   Outer-Iter.   Inner-Iter.     Column Row Layer    Maximum-Head-Change  Column Row Layer    Maximum-Flux-Residual          L2-NORM 
          0                 1           2             4    7     1       0.4774928996E-01       4    7    1         0.2511509865E+01      0.6197780002E+01
          0                 2           2             4    7     1      -0.4644719536E-02       4    7    1        -0.2511521009E+00      0.6197696743E+00
          0                 3           2             4    7     1       0.3162880281E-03       4    7    1         0.1758064412E-01      0.4338391457E-01
          0                 4           1             4    7     1      -0.1258539721E-04       4    7    1        -0.7190493975E-03      0.1774403572E-02

    ------------------------------------------------
       NWT REQUIRED            4 OUTER ITERATIONS 
       AND A TOTAL OF          7 INNER ITERATIONS.
    ------------------------------------------------

 NO OUTPUT CONTROL FOR STRESS PERIOD   34   TIME STEP   19
 
 SOLVING FOR HEAD 
                                                   Max.-Head-Change                         Max.-Flux-Residual
  Residual-Control   Outer-Iter.   Inner-Iter.     Column Row Layer    Maximum-Head-Change  Column Row Layer    Maximum-Flux-Residual          L2-NORM 
          0                 1           2             4    7     1       0.4714923273E-01       4    7    1         0.2480798866E+01      0.6061049160E+01
          0                 2           2             4    7     1      -0.4586351559E-02       4    7    1        -0.2480810814E+00      0.6061014537E+00
          0                 3           2             4    7     1       0.3123133730E-03       4    7    1         0.1736567188E-01      0.4242713160E-01
          0                 4           1             4    7     1      -0.1242724182E-04       4    7    1        -0.7102570269E-03      0.1735268811E-02

    ------------------------------------------------
       NWT REQUIRED            4 OUTER ITERATIONS 
       AND A TOTAL OF          7 INNER ITERATIONS.
    ------------------------------------------------

 NO OUTPUT CONTROL FOR STRESS PERIOD   34   TIME STEP   20
 
 SOLVING FOR HEAD 
                                                   Max.-Head-Change                         Max.-Flux-Residual
  Residual-Control   Outer-Iter.   Inner-Iter.     Column Row Layer    Maximum-Head-Change  Column Row Layer    Maximum-Flux-Residual          L2-NORM 
          0                 1           2             4    7     1       0.4654174673E-01       4    7    1         0.2449625647E+01      0.5929533600E+01
          0                 2           2             4    7     1      -0.4527260776E-02       4    7    1        -0.2449638273E+00      0.5929502093E+00
          0                 3           2             4    7     1       0.3082894999E-03       4    7    1         0.1714746337E-01      0.4150654219E-01
          0                 4           1             4    7     1      -0.1226712834E-04       4    7    1        -0.7013322918E-03      0.1697615775E-02

    ------------------------------------------------
       NWT REQUIRED            4 OUTER ITERATIONS 
       AND A TOTAL OF          7 INNER ITERATIONS.
    ------------------------------------------------

 NO OUTPUT CONTROL FOR STRESS PERIOD   34   TIME STEP   21
 
 SOLVING FOR HEAD 
                                                   Max.-Head-Change                         Max.-Flux-Residual
  Residual-Control   Outer-Iter.   Inner-Iter.     Column Row Layer    Maximum-Head-Change  Column Row Layer    Maximum-Flux-Residual          L2-NORM 
          0                 1           2             4    7     1       0.4592834379E-01       4    7    1         0.2418074234E+01      0.5802936081E+01
          0                 2           2             4    7     1      -0.4467594266E-02       4    7    1        -0.2418087424E+00      0.5802907326E+00
          0                 3           2             4    7     1       0.3042264231E-03       4    7    1         0.1692660680E-01      0.4062036962E-01
          0                 4           1             4    7     1      -0.1210545477E-04       4    7    1        -0.6922992432E-03      0.1661372550E-02

    ------------------------------------------------
       NWT REQUIRED            4 OUTER ITERATIONS 
       AND A TOTAL OF          7 INNER ITERATIONS.
    ------------------------------------------------

 NO OUTPUT CONTROL FOR STRESS PERIOD   34   TIME STEP   22
 
 SOLVING FOR HEAD 
                                                   Max.-Head-Change                         Max.-Flux-Residual
  Residual-Control   Outer-Iter.   Inner-Iter.     Column Row Layer    Maximum-Head-Change  Column Row Layer    Maximum-Flux-Residual          L2-NORM 
          0                 1           2             4    7     1       0.4531002830E-01       4    7    1         0.2386201559E+01      0.5680980198E+01
          0                 2           2             4    7     1      -0.4407449745E-02       4    7    1        -0.2386215211E+00      0.5680953960E+00
          0                 3           2             4    7     1       0.3001307971E-03       4    7    1         0.1670350077E-01      0.3976669906E-01
          0                 4           1             4    7     1      -0.1194248589E-04       4    7    1        -0.6831741905E-03      0.1626459658E-02

    ------------------------------------------------
       NWT REQUIRED            4 OUTER ITERATIONS 
       AND A TOTAL OF          7 INNER ITERATIONS.
    ------------------------------------------------

 NO OUTPUT CONTROL FOR STRESS PERIOD   34   TIME STEP   23
 
 SOLVING FOR HEAD 
                                                   Max.-Head-Change                         Max.-Flux-Residual
  Residual-Control   Outer-Iter.   Inner-Iter.     Column Row Layer    Maximum-Head-Change  Column Row Layer    Maximum-Flux-Residual          L2-NORM 
          0                 1           2             4    7     1       0.4468812436E-01       4    7    1         0.2354081152E+01      0.5563422542E+01
          0                 2           2             4    7     1      -0.4346956028E-02       4    7    1        -0.2354095176E+00      0.5563398105E+00
          0                 3           2             4    7     1       0.2960113933E-03       4    7    1         0.1647866007E-01      0.3894380404E-01
          0                 4           1             4    7     1      -0.1177857102E-04       4    7    1        -0.6739781886E-03      0.1592802994E-02

    ------------------------------------------------
       NWT REQUIRED            4 OUTER ITERATIONS 
       AND A TOTAL OF          7 INNER ITERATIONS.
    ------------------------------------------------

 NO OUTPUT CONTROL FOR STRESS PERIOD   34   TIME STEP   24
 
 SOLVING FOR HEAD 
                                                   Max.-Head-Change                         Max.-Flux-Residual
  Residual-Control   Outer-Iter.   Inner-Iter.     Column Row Layer    Maximum-Head-Change  Column Row Layer    Maximum-Flux-Residual          L2-NORM 
          0                 1           2             4    7     1       0.4406359075E-01       4    7    1         0.2321767323E+01      0.5450020200E+01
          0                 2           2             4    7     1      -0.4286206391E-02       4    7    1        -0.2321781634E+00      0.5449998180E+00
          0                 3           2             4    7     1       0.2918745643E-03       4    7    1         0.1625246491E-01      0.3815000740E-01
          0                 4           1             4    7     1      -0.1161396330E-04       4    7    1        -0.6647268215E-03      0.1560337328E-02

    ------------------------------------------------
       NWT REQUIRED            4 OUTER ITERATIONS 
       AND A TOTAL OF          7 INNER ITERATIONS.
    ------------------------------------------------

 NO OUTPUT CONTROL FOR STRESS PERIOD   34   TIME STEP   25
 
 SOLVING FOR HEAD 
                                                   Max.-Head-Change                         Max.-Flux-Residual
  Residual-Control   Outer-Iter.   Inner-Iter.     Column Row Layer    Maximum-Head-Change  Column Row Layer    Maximum-Flux-Residual          L2-NORM 
          0                 1           2             4    7     1       0.4343770639E-01       4    7    1         0.2289331362E+01      0.5340562763E+01
          0                 2           2             4    7     1      -0.4225325253E-02       4    7    1        -0.2289345888E+00      0.5340542331E+00
          0                 3           2             4    7     1       0.2877287809E-03       4    7    1         0.1602541438E-01      0.3738382370E-01
          0                 4           1             4    7     1      -0.1144899811E-04       4    7    1        -0.6554404245E-03      0.1529000268E-02

    ------------------------------------------------
       NWT REQUIRED            4 OUTER ITERATIONS 
       AND A TOTAL OF          7 INNER ITERATIONS.
    ------------------------------------------------

 NO OUTPUT CONTROL FOR STRESS PERIOD   34   TIME STEP   26
 
 SOLVING FOR HEAD 
                                                   Max.-Head-Change                         Max.-Flux-Residual
  Residual-Control   Outer-Iter.   Inner-Iter.     Column Row Layer    Maximum-Head-Change  Column Row Layer    Maximum-Flux-Residual          L2-NORM 
          0                 1           2             4    7     1       0.4281099530E-01       4    7    1         0.2256803650E+01      0.5234831957E+01
          0                 2           2             4    7     1      -0.4164363598E-02       4    7    1        -0.2256818324E+00      0.5234813055E+00
          0                 3           2             4    7     1       0.2835775157E-03       4    7    1         0.1579772121E-01      0.3664371824E-01
          0                 4           1             4    7     1      -0.1128381522E-04       4    7    1        -0.6461277467E-03      0.1498729494E-02

    ------------------------------------------------
       NWT REQUIRED            4 OUTER ITERATIONS 
       AND A TOTAL OF          7 INNER ITERATIONS.
    ------------------------------------------------

 NO OUTPUT CONTROL FOR STRESS PERIOD   34   TIME STEP   27
 
 SOLVING FOR HEAD 
                                                   Max.-Head-Change                         Max.-Flux-Residual
  Residual-Control   Outer-Iter.   Inner-Iter.     Column Row Layer    Maximum-Head-Change  Column Row Layer    Maximum-Flux-Residual          L2-NORM 
          0                 1           2             4    7     1       0.4218472629E-01       4    7    1         0.2224254643E+01      0.5132661552E+01
          0                 2           2             4    7     1      -0.4103444858E-02       4    7    1        -0.2224269408E+00      0.5132643753E+00
          0                 3           2             4    7     1       0.2794291737E-03       4    7    1         0.1556987861E-01      0.3592852176E-01
          0                 4           1             4    7     1      -0.1111874883E-04       4    7    1        -0.6368089716E-03      0.1469478179E-02

    ------------------------------------------------
       NWT REQUIRED            4 OUTER ITERATIONS 
       AND A TOTAL OF          7 INNER ITERATIONS.
    ------------------------------------------------

 NO OUTPUT CONTROL FOR STRESS PERIOD   34   TIME STEP   28
 
 SOLVING FOR HEAD 
                                                   Max.-Head-Change                         Max.-Flux-Residual
  Residual-Control   Outer-Iter.   Inner-Iter.     Column Row Layer    Maximum-Head-Change  Column Row Layer    Maximum-Flux-Residual          L2-NORM 
          0                 1           2             4    7     1       0.4155940655E-01       4    7    1         0.2191713715E+01      0.5033853775E+01
          0                 2           2             4    7     1      -0.4042618378E-02       4    7    1        -0.2191728519E+00      0.5033836971E+00
          0                 3           2             4    7     1       0.2752871156E-03       4    7    1         0.1534209227E-01      0.3523687163E-01
          0                 4           1             4    7     1      -0.1095393285E-04       4    7    1        -0.6274925086E-03      0.1441187143E-02

    ------------------------------------------------
       NWT REQUIRED            4 OUTER ITERATIONS 
       AND A TOTAL OF          7 INNER ITERATIONS.
    ------------------------------------------------

 NO OUTPUT CONTROL FOR STRESS PERIOD   34   TIME STEP   29
 
 SOLVING FOR HEAD 
                                                   Max.-Head-Change                         Max.-Flux-Residual
  Residual-Control   Outer-Iter.   Inner-Iter.     Column Row Layer    Maximum-Head-Change  Column Row Layer    Maximum-Flux-Residual          L2-NORM 
          0                 1           2             4    7     1       0.4093590093E-01       4    7    1         0.2159229347E+01      0.4938263156E+01
          0                 2           2             4    7     1      -0.3981968294E-02       4    7    1        -0.2159244144E+00      0.4938247225E+00
          0                 3           2             4    7     1       0.2711570695E-03       4    7    1         0.1511470154E-01      0.3456773862E-01
          0                 4           1             4    7     1      -0.1078959430E-04       4    7    1        -0.6181922092E-03      0.1413821307E-02

    ------------------------------------------------
       NWT REQUIRED            4 OUTER ITERATIONS 
       AND A TOTAL OF          7 INNER ITERATIONS.
    ------------------------------------------------

 NO OUTPUT CONTROL FOR STRESS PERIOD   34   TIME STEP   30



 STREAM LISTING     PERIOD     34   STEP       30

 LAYER ROW COL. STREAM  RCH.  FLOW INTO     FLOW TO   FLOW OUT OF   OVRLND.     DIRECT     STREAM       STREAM     STREAM     STREAM   STREAMBED  STREAMBED
                SEG.NO.  NO.  STRM. RCH.    AQUIFER    STRM. RCH.    RUNOFF     PRECIP       ET          HEAD       DEPTH      WIDTH   CONDCTNC.   GRADIENT

   1    1    1     1     1    1.9000E+01  2.1427E-01   1.8786E+01  0.000E+00  0.000E+00  0.000E+00  1.09413E+03  1.082E+00  1.166E+01  5.249E-02  1.361E+00
   1    2    2     1     2    1.8786E+01  3.3054E-01   1.8455E+01  0.000E+00  0.000E+00  0.000E+00  1.08914E+03  1.077E+00  1.158E+01  8.107E-02  1.359E+00
   1    3    3     1     3    1.8455E+01  2.8064E-01   1.8175E+01  0.000E+00  0.000E+00  0.000E+00  1.08349E+03  1.072E+00  1.149E+01  6.892E-02  1.357E+00
   1    3    4     1     4    1.8175E+01  2.5740E-01   1.7917E+01  0.000E+00  0.000E+00  0.000E+00  1.07848E+03  1.068E+00  1.140E+01  6.328E-02  1.356E+00
   1    4    5     2     1    1.5917E+01  3.0542E-01   1.5612E+01  0.000E+00  0.000E+00  0.000E+00  1.07285E+03  9.157E-01  1.200E+01  7.800E-02  1.305E+00
   1    5    6     2     2    1.5612E+01  2.3438E-01   1.5377E+01  0.000E+00  0.000E+00  0.000E+00  1.06742E+03  9.063E-01  1.200E+01  6.000E-02  1.302E+00
   1    6    6     2     3    1.5377E+01  2.3388E-01   1.5143E+01  0.000E+00  0.000E+00  0.000E+00  1.06269E+03  8.980E-01  1.200E+01  6.000E-02  1.299E+00
   1    7    6     2     4    1.5143E+01  2.3338E-01   1.4910E+01  0.000E+00  0.000E+00  0.000E+00  1.05797E+03  8.897E-01  1.200E+01  6.000E-02  1.297E+00
   1    8    6     2     5    1.4910E+01  2.3289E-01   1.4677E+01  0.000E+00  0.000E+00  0.000E+00  1.05324E+03  8.814E-01  1.200E+01  6.000E-02  1.294E+00
   1    3    5     3     1    2.0000E+00  2.8252E-01   1.7175E+00  0.000E+00  0.000E+00  0.000E+00  1.07555E+03  1.909E+00  9.636E+00  7.227E-02  1.955E+00
   1    3    6     3     2    1.7175E+00  2.4905E-01   1.4684E+00  0.000E+00  0.000E+00  0.000E+00  1.07264E+03  1.727E+00  8.909E+00  6.682E-02  1.864E+00
   1    3    7     3     3    1.4684E+00  1.9718E-01   1.2712E+00  0.000E+00  0.000E+00  0.000E+00  1.06987E+03  1.555E+00  8.218E+00  5.547E-02  1.777E+00
   1    4    8     3     4    1.2712E+00  2.2567E-01   1.0456E+00  0.000E+00  0.000E+00  0.000E+00  1.06682E+03  1.364E+00  7.455E+00  6.709E-02  1.682E+00
   1    5    8     3     5    1.0456E+00  1.5790E-01   8.8768E-01  0.000E+00  0.000E+00  0.000E+00  1.06362E+03  1.164E+00  6.655E+00  4.991E-02  1.582E+00
   1    6    8     3     6    8.8768E-01  5.5980E-02   8.3170E-01  0.000E+00  0.000E+00  0.000E+00  1.06158E+03  1.036E+00  6.145E+00  1.844E-02  1.518E+00
   1    5   10     4     1    1.0000E+01  9.0919E-02   9.9091E+00  0.000E+00  0.000E+00  0.000E+00  1.07836E+03  6.368E-01  1.000E+01  2.500E-02  1.212E+00
   1    5    9     4     2    9.9091E+00  1.8158E-01   9.7275E+00  0.000E+00  0.000E+00  0.000E+00  1.07154E+03  6.315E-01  1.000E+01  5.000E-02  1.211E+00
   1    6    8     4     3    9.7275E+00  1.2689E-01   9.6006E+00  0.000E+00  0.000E+00  0.000E+00  1.06381E+03  6.256E-01  1.000E+01  3.500E-02  1.209E+00
   1    6    8     5     1    1.0432E+01  2.2686E-01   1.0205E+01  0.000E+00  0.000E+00  0.000E+00  1.05868E+03  6.790E-01  1.542E+01  6.166E-02  1.226E+00
   1    7    7     5     2    1.0205E+01  2.7894E-01   9.9265E+00  0.000E+00  0.000E+00  0.000E+00  1.05417E+03  6.732E-01  1.519E+01  7.594E-02  1.224E+00
   1    8    7     5     3    9.9265E+00  1.9221E-01   9.7343E+00  0.000E+00  0.000E+00  0.000E+00  1.04992E+03  6.676E-01  1.497E+01  5.241E-02  1.223E+00
   1    8    6     5     4    9.7343E+00  1.3577E-01   9.5985E+00  0.000E+00  0.000E+00  0.000E+00  1.04691E+03  6.637E-01  1.482E+01  3.706E-02  1.221E+00
   1    9    6     6     1    2.4276E+01  2.5176E-01   2.4024E+01  0.000E+00  0.000E+00  0.000E+00  1.04392E+03  1.196E+00  1.200E+01  6.000E-02  1.399E+00
   1   10    7     6     2    2.4024E+01  2.5131E-01   2.3773E+01  0.000E+00  0.000E+00  0.000E+00  1.03937E+03  1.188E+00  1.200E+01  6.000E-02  1.396E+00
   1   11    7     6     3    2.3773E+01  2.5086E-01   2.3522E+01  0.000E+00  0.000E+00  0.000E+00  1.03482E+03  1.181E+00  1.200E+01  6.000E-02  1.394E+00
   1   12    7     6     4    2.3522E+01  2.5041E-01   2.3271E+01  0.000E+00  0.000E+00  0.000E+00  1.03026E+03  1.173E+00  1.200E+01  6.000E-02  1.391E+00
   1   13    7     6     5    2.3271E+01  7.0746E-03   2.3264E+01  0.000E+00  0.000E+00  0.000E+00  1.02708E+03  1.170E+00  1.200E+01  2.400E-02  9.826E-02
   1   14    9     7     1    1.5000E+02  1.3532E+00   1.4865E+02  0.000E+00  0.000E+00  0.000E+00  1.03987E+03  2.288E+00  5.529E+01  5.593E-01  8.065E-01
   1   13    8     7     2    1.4865E+02  1.9175E+00   1.4673E+02  0.000E+00  0.000E+00  0.000E+00  1.03478E+03  2.279E+00  5.526E+01  6.148E-01  1.040E+00
   1   13    7     7     3    1.4673E+02  1.6222E+00   1.4511E+02  0.000E+00  0.000E+00  0.000E+00  1.02969E+03  2.270E+00  5.521E+01  5.584E-01  9.683E-01
   1   13    6     8     1    1.6837E+02  1.0614E+00   1.6731E+02  0.000E+00  0.000E+00  0.000E+00  1.02481E+03  2.938E+00  4.260E+01  4.341E-01  8.150E-01
   1   13    5     8     2    1.6731E+02  3.0617E-01   1.6700E+02  0.000E+00  0.000E+00  0.000E+00  1.01856E+03  2.934E+00  4.254E+01  4.335E-01  2.354E-01
   1   13    4     8     3    1.6700E+02 -1.9976E+00   1.6900E+02  0.000E+00  0.000E+00  0.000E+00  1.01231E+03  2.939E+00  4.262E+01  4.343E+00 -1.533E-01
   1   13    3     8     4    1.6900E+02 -3.4364E+00   1.7244E+02  0.000E+00  0.000E+00  0.000E+00  1.00608E+03  2.957E+00  4.287E+01  4.369E+00 -2.622E-01
   1   13    2     8     5    1.7244E+02 -2.5247E+00   1.7496E+02  0.000E+00  0.000E+00  0.000E+00  9.99851E+02  2.976E+00  4.315E+01  4.398E+00 -1.914E-01
   1   13    1     8     6    1.7496E+02 -1.9690E+00   1.7693E+02  0.000E+00  0.000E+00  0.000E+00  9.94866E+02  2.991E+00  4.336E+01  2.651E+00 -2.476E-01





UNSATURATED ZONE PACKAGE VOLUMETRIC BUDGET FOR  TIME STEP    30 STRESS PERIOD   34
  ------------------------------------------------------------------------------



     CUMULATIVE VOLUMES      L**3       RATES FOR THIS TIME STEP      L**3/T
     ------------------                 ------------------------

           IN:                                      IN:
           ---                                      ---
        INFILTRATION =  1577757370.1101          INFILTRATION =          15.3462

          OUT:                                     OUT:
          ----                                     ----
              UZF ET =  1486007300.4530                UZF ET =          15.3575
        UZF RECHARGE =      883910.3275          UZF RECHARGE =       0.0000E+00

            IN - OUT =    90866159.3296              IN - OUT =      -1.1304E-02

          STORAGE:                                 STORAGE:
          --------                                 --------
      STORAGE CHANGE =    90867791.9987        STORAGE CHANGE =      -1.1304E-02

 PERCENT DISCREPANCY IS DIFFERENCE BETWEEN IN-OUT MINUS CHANGE IN STORAGE
 DIVIDED BY THE AVERAGE OF IN AND OUT TIMES 100

 PERCENT DISCREPANCY =          -0.00     PERCENT DISCREPANCY =           0.00






1
  VOLUMETRIC BUDGET FOR ENTIRE MODEL AT END OF TIME STEP   30, STRESS PERIOD  34
  ------------------------------------------------------------------------------

     CUMULATIVE VOLUMES      L**3       RATES FOR THIS TIME STEP      L**3/T
     ------------------                 ------------------------

           IN:                                      IN:
           ---                                      ---
               AG WELLS  =  1195158016.0000                 AG WELLS  =          10.9387
      DIVERSION SEGMENTS =           0.0000        DIVERSION SEGMENTS =           0.0000
           GW IRRIGATION =           0.0000             GW IRRIGATION =           0.0000
           SW IRRIGATION =           0.0000             SW IRRIGATION =           0.0000
        SYSTEM LOSSES GW =           0.0000          SYSTEM LOSSES GW =           0.0000
        SYSTEM LOSSES SW =           0.0000          SYSTEM LOSSES SW =           0.0000

                TOTAL IN =  1195158016.0000                  TOTAL IN =          10.9387

          OUT:                                     OUT:
          ----                                     ----
               AG WELLS  =           0.0000                 AG WELLS  =           0.0000
      DIVERSION SEGMENTS =           0.0000        DIVERSION SEGMENTS =           0.0000
           GW IRRIGATION =  1195158016.0000             GW IRRIGATION =          10.9387
           SW IRRIGATION =           0.0000             SW IRRIGATION =           0.0000
        SYSTEM LOSSES GW =           0.0000          SYSTEM LOSSES GW =           0.0000
        SYSTEM LOSSES SW =           0.0000          SYSTEM LOSSES SW =           0.0000

               TOTAL OUT =  1195158016.0000                 TOTAL OUT =          10.9387

                IN - OUT =           0.0000                  IN - OUT =           0.0000

     PERCENT DISCREPANCY =           0.00         PERCENT DISCREPANCY =           0.00



1
  VOLUMETRIC BUDGET FOR ENTIRE MODEL AT END OF TIME STEP   30, STRESS PERIOD  34
  ------------------------------------------------------------------------------

     CUMULATIVE VOLUMES      L**3       RATES FOR THIS TIME STEP      L**3/T
     ------------------                 ------------------------

           IN:                                      IN:
           ---                                      ---
             STORAGE     =  1548249856.0000               STORAGE     =          18.7214
       CONSTANT HEAD     =           0.0000         CONSTANT HEAD     =           0.0000
     HEAD DEP BOUNDS     =    24821924.0000       HEAD DEP BOUNDS     =           0.2869
      STREAM LEAKAGE     =  1065212224.0000        STREAM LEAKAGE     =          11.9962
        UZF RECHARGE     =      883910.4375          UZF RECHARGE     =           0.0000
               GW ET     =           0.0000                 GW ET     =           0.0000
     SURFACE LEAKAGE     =           0.0000       SURFACE LEAKAGE     =           0.0000
           AG WELLS      =           0.0000             AG WELLS      =           0.0000

                TOTAL IN =  2639168000.0000                  TOTAL IN =          31.0046

          OUT:                                     OUT:
          ----                                     ----
             STORAGE     =   505789920.0000               STORAGE     =           9.8491
       CONSTANT HEAD     =           0.0000         CONSTANT HEAD     =           0.0000
     HEAD DEP BOUNDS     =    25432944.0000       HEAD DEP BOUNDS     =           0.2891
      STREAM LEAKAGE     =   895468928.0000        STREAM LEAKAGE     =           9.9277
        UZF RECHARGE     =           0.0000          UZF RECHARGE     =           0.0000
               GW ET     =    17319432.0000                 GW ET     =           0.0000
     SURFACE LEAKAGE     =           0.0000       SURFACE LEAKAGE     =           0.0000
           AG WELLS      =  1195158016.0000             AG WELLS      =          10.9387

               TOTAL OUT =  2639169280.0000                 TOTAL OUT =          31.0046

                IN - OUT =       -1280.0000                  IN - OUT =      -2.6703E-05

     PERCENT DISCREPANCY =          -0.00         PERCENT DISCREPANCY =          -0.00






         TIME SUMMARY AT END OF TIME STEP   30 IN STRESS PERIOD   34
                    SECONDS     MINUTES      HOURS       DAYS        YEARS
                    -----------------------------------------------------------
   TIME STEP LENGTH  87667.      1461.1      24.352      1.0147     2.77799E-03
 STRESS PERIOD TIME 2.63000E+06  43833.      730.56      30.440     8.33397E-02
         TOTAL TIME 8.68762E+07 1.44794E+06  24132.      1005.5      2.7529    
1
1
                            STRESS PERIOD NO.   35, LENGTH =   2630000.    
                            -----------------------------------------------

                              NUMBER OF TIME STEPS =    30

                               MULTIPLIER FOR DELT =     1.000

                            INITIAL TIME STEP SIZE =   87666.66    

 REUSING NON-PARAMETER GHB CELLS FROM LAST STRESS PERIOD

      2 GHB CELLS

 REUSING STREAM SEGMENT DATA FROM LAST STRESS PERIOD



            AREAL INFILTRATION RATE
 READING ON UNIT   19 WITH FORMAT: (10F4.0)            

            1           2           3           4           5           6           7           8           9          10
 ........................................................................................................................
   1   1.2000E-09   0.000       0.000       0.000       0.000       0.000       0.000       0.000       0.000       0.000    
   2   2.1000E-09  2.0000E-09  8.0000E-10  8.5000E-09   0.000       0.000       0.000       0.000       0.000       0.000    
   3   5.0000E-10  1.1000E-09  8.8000E-09  5.5000E-09   0.000       0.000       0.000       0.000       0.000       0.000    
   4   8.5000E-09  1.1000E-09  1.1000E-09  1.1000E-09  2.0000E-09   0.000       0.000       0.000       0.000       0.000    
   5   8.5000E-09  1.1000E-09  1.1000E-09  1.1000E-09  1.1000E-09   0.000       0.000       0.000       0.000       0.000    
   6   8.5000E-09  5.2000E-09  2.1000E-09  1.1000E-09  1.5000E-09   0.000       0.000       0.000       0.000       0.000    
   7   8.5000E-09  5.2000E-09  2.1000E-09  1.2000E-09  2.0000E-09   0.000       0.000       0.000       0.000       0.000    
   8   5.0000E-10  5.2000E-09  2.1000E-09  1.2000E-09  5.0000E-09   0.000       0.000       0.000       0.000       0.000    
   9   5.0000E-10  5.2000E-09  2.1000E-09  1.2000E-09  5.0000E-09   0.000       0.000       0.000       0.000       0.000    
  10   5.0000E-10  5.2000E-09  2.1000E-09  1.2000E-09  5.8000E-09   0.000       0.000       0.000       0.000       0.000    
  11   1.0000E-10  1.1000E-09  1.1000E-09  1.2000E-09  5.0000E-09   0.000       0.000       0.000       0.000       0.000    
  12   1.1000E-09  1.1000E-09  1.1000E-09  1.1000E-09  2.0000E-09   0.000       0.000       0.000       0.000       0.000    
  13   1.1000E-09  2.2000E-09  2.2000E-09  2.1000E-09  1.0000E-09   0.000       0.000       0.000       0.000       0.000    
  14   2.0000E-10  5.5000E-09  5.5000E-09  5.2000E-09  1.0000E-09   0.000       0.000       0.000       0.000       0.000    
  15    0.000      8.8000E-09  8.8000E-09   0.000       0.000       0.000       0.000       0.000       0.000       0.000    

                  ET RATE =  5.000000E-09

 USING ET EXTINCTION DEPTH FROM PREVIOUS STRESS PERIOD. CURRENT PERIOD IS:      35

 USING EXTINCTION WATER CONTENT FROM PREVIOUS STRESS PERIOD. CURRENT PERIOD IS:      35

 USING AIR ENTRY PRESSURE FROM PREVIOUS STRESS PERIOD. CURRENT PERIOD IS:      35

 USING ROOT PRESSURE HEAD FROM PREVIOUS STRESS PERIOD. CURRENT PERIOD IS:      35

 USING ROOT ACTIVITY FROM PREVIOUS STRESS PERIOD. CURRENT PERIOD IS:      35

 PROCESSING AG STRESS PERIOD DATA

 READING AG STRESS PERIOD DATA

 READING IRRIGATION WELL

 END PROCESSING AG STRESS PERIOD DATA OPTIONS
 
 SOLVING FOR HEAD 
                                                   Max.-Head-Change                         Max.-Flux-Residual
  Residual-Control   Outer-Iter.   Inner-Iter.     Column Row Layer    Maximum-Head-Change  Column Row Layer    Maximum-Flux-Residual          L2-NORM 
          0                 1           2             4    7     1       0.7561082197E-01       4    7    1         0.3969564660E+01      0.8898790667E+01
          0                 2           2             4    7     1      -0.7354934162E-02       4    7    1        -0.3969607607E+00      0.8898789253E+00
          0                 3           2             4    7     1       0.5008431336E-03       4    7    1         0.2778722459E-01      0.6229153984E-01
          0                 4           1             4    7     1      -0.1992901947E-04       4    7    1        -0.1136499250E-02      0.2547762965E-02

    ------------------------------------------------
       NWT REQUIRED            4 OUTER ITERATIONS 
       AND A TOTAL OF          7 INNER ITERATIONS.
    ------------------------------------------------

 NO OUTPUT CONTROL FOR STRESS PERIOD   35   TIME STEP    1
 
 SOLVING FOR HEAD 
                                                   Max.-Head-Change                         Max.-Flux-Residual
  Residual-Control   Outer-Iter.   Inner-Iter.     Column Row Layer    Maximum-Head-Change  Column Row Layer    Maximum-Flux-Residual          L2-NORM 
          0                 1           2             4    7     1       0.7480857232E-01       4    7    1         0.3928515236E+01      0.8725107496E+01
          0                 2           2             4    7     1      -0.7276899161E-02       4    7    1        -0.3928559522E+00      0.8725109631E+00
          0                 3           2             4    7     1       0.4955292201E-03       4    7    1         0.2749988663E-01      0.6107577909E-01
          0                 4           1             4    7     1      -0.1971757427E-04       4    7    1        -0.1124747124E-02      0.2498002523E-02

    ------------------------------------------------
       NWT REQUIRED            4 OUTER ITERATIONS 
       AND A TOTAL OF          7 INNER ITERATIONS.
    ------------------------------------------------

 NO OUTPUT CONTROL FOR STRESS PERIOD   35   TIME STEP    2
 
 SOLVING FOR HEAD 
                                                   Max.-Head-Change                         Max.-Flux-Residual
  Residual-Control   Outer-Iter.   Inner-Iter.     Column Row Layer    Maximum-Head-Change  Column Row Layer    Maximum-Flux-Residual          L2-NORM 
          0                 1           2             4    7     1       0.7399611806E-01       4    7    1         0.3886840746E+01      0.8557959824E+01
          0                 2           2             4    7     1      -0.7197871171E-02       4    7    1        -0.3886886131E+00      0.8557965111E+00
          0                 3           2             4    7     1       0.4901476911E-03       4    7    1         0.2720817173E-01      0.5990576320E-01
          0                 4           1             4    7     1      -0.1950343832E-04       4    7    1        -0.1112815989E-02      0.2450150529E-02

    ------------------------------------------------
       NWT REQUIRED            4 OUTER ITERATIONS 
       AND A TOTAL OF          7 INNER ITERATIONS.
    ------------------------------------------------

 NO OUTPUT CONTROL FOR STRESS PERIOD   35   TIME STEP    3
 
 SOLVING FOR HEAD 
                                                   Max.-Head-Change                         Max.-Flux-Residual
  Residual-Control   Outer-Iter.   Inner-Iter.     Column Row Layer    Maximum-Head-Change  Column Row Layer    Maximum-Flux-Residual          L2-NORM 
          0                 1           2             4    7     1       0.7317492141E-01       4    7    1         0.3844622652E+01      0.8396948355E+01
          0                 2           2             4    7     1      -0.7117992460E-02       4    7    1        -0.3844668919E+00      0.8396956592E+00
          0                 3           2             4    7     1       0.4847082337E-03       4    7    1         0.2691265028E-01      0.5877870013E-01
          0                 4           1             4    7     1      -0.1928699693E-04       4    7    1        -0.1100729130E-02      0.2404051348E-02

    ------------------------------------------------
       NWT REQUIRED            4 OUTER ITERATIONS 
       AND A TOTAL OF          7 INNER ITERATIONS.
    ------------------------------------------------

 NO OUTPUT CONTROL FOR STRESS PERIOD   35   TIME STEP    4
 
 SOLVING FOR HEAD 
                                                   Max.-Head-Change                         Max.-Flux-Residual
  Residual-Control   Outer-Iter.   Inner-Iter.     Column Row Layer    Maximum-Head-Change  Column Row Layer    Maximum-Flux-Residual          L2-NORM 
          0                 1           2             4    7     1       0.7234674314E-01       4    7    1         0.3801958485E+01      0.8241719576E+01
          0                 2           2             4    7     1      -0.7037434335E-02       4    7    1        -0.3802005437E+00      0.8241730461E+00
          0                 3           2             4    7     1       0.4792225137E-03       4    7    1         0.2661400513E-01      0.5769211215E-01
          0                 4           1             4    7     1      -0.1906871512E-04       4    7    1        -0.1088514521E-02      0.2359686700E-02

    ------------------------------------------------
       NWT REQUIRED            4 OUTER ITERATIONS 
       AND A TOTAL OF          7 INNER ITERATIONS.
    ------------------------------------------------

 NO OUTPUT CONTROL FOR STRESS PERIOD   35   TIME STEP    5
 
 SOLVING FOR HEAD 
                                                   Max.-Head-Change                         Max.-Flux-Residual
  Residual-Control   Outer-Iter.   Inner-Iter.     Column Row Layer    Maximum-Head-Change  Column Row Layer    Maximum-Flux-Residual          L2-NORM 
          0                 1           2             4    7     1       0.7151295764E-01       4    7    1         0.3758925056E+01      0.8091935905E+01
          0                 2           2             4    7     1      -0.6956330513E-02       4    7    1        -0.3758972517E+00      0.8091949434E+00
          0                 3           2             4    7     1       0.4736996367E-03       4    7    1         0.2631277407E-01      0.5664363881E-01
          0                 4           1             4    7     1      -0.1884895506E-04       4    7    1        -0.1076194173E-02      0.2316727910E-02

    ------------------------------------------------
       NWT REQUIRED            4 OUTER ITERATIONS 
       AND A TOTAL OF          7 INNER ITERATIONS.
    ------------------------------------------------

 NO OUTPUT CONTROL FOR STRESS PERIOD   35   TIME STEP    6
 
 SOLVING FOR HEAD 
                                                   Max.-Head-Change                         Max.-Flux-Residual
  Residual-Control   Outer-Iter.   Inner-Iter.     Column Row Layer    Maximum-Head-Change  Column Row Layer    Maximum-Flux-Residual          L2-NORM 
          0                 1           2             4    7     1       0.7067511039E-01       4    7    1         0.3715608111E+01      0.7947295791E+01
          0                 2           2             4    7     1      -0.6874831356E-02       4    7    1        -0.3715655919E+00      0.7947311152E+00
          0                 3           2             4    7     1       0.4681498412E-03       4    7    1         0.2600955743E-01      0.5563117111E-01
          0                 4           1             4    7     1      -0.1862812363E-04       4    7    1        -0.1063792602E-02      0.2275315495E-02

    ------------------------------------------------
       NWT REQUIRED            4 OUTER ITERATIONS 
       AND A TOTAL OF          7 INNER ITERATIONS.
    ------------------------------------------------

 NO OUTPUT CONTROL FOR STRESS PERIOD   35   TIME STEP    7
 
 SOLVING FOR HEAD 
                                                   Max.-Head-Change                         Max.-Flux-Residual
  Residual-Control   Outer-Iter.   Inner-Iter.     Column Row Layer    Maximum-Head-Change  Column Row Layer    Maximum-Flux-Residual          L2-NORM 
          0                 1           2             4    7     1       0.6983450139E-01       4    7    1         0.3672080539E+01      0.7807508409E+01
          0                 2           2             4    7     1      -0.6793063341E-02       4    7    1        -0.3672128551E+00      0.7807525282E+00
          0                 3           2             4    7     1       0.4625817397E-03       4    7    1         0.2570486555E-01      0.5465267029E-01
          0                 4           1             4    7     1      -0.1840656368E-04       4    7    1        -0.1051330690E-02      0.2235296788E-02

    ------------------------------------------------
       NWT REQUIRED            4 OUTER ITERATIONS 
       AND A TOTAL OF          7 INNER ITERATIONS.
    ------------------------------------------------

 NO OUTPUT CONTROL FOR STRESS PERIOD   35   TIME STEP    8
 
 SOLVING FOR HEAD 
                                                   Max.-Head-Change                         Max.-Flux-Residual
  Residual-Control   Outer-Iter.   Inner-Iter.     Column Row Layer    Maximum-Head-Change  Column Row Layer    Maximum-Flux-Residual          L2-NORM 
          0                 1           2             4    7     1       0.6899220867E-01       4    7    1         0.3628402496E+01      0.7672315171E+01
          0                 2           2             4    7     1      -0.6711131353E-02       4    7    1        -0.3628450583E+00      0.7672333207E+00
          0                 3           2             4    7     1       0.4570024734E-03       4    7    1         0.2539911954E-01      0.5370631872E-01
          0                 4           1             4    7     1      -0.1818455932E-04       4    7    1        -0.1038825662E-02      0.2196586055E-02

    ------------------------------------------------
       NWT REQUIRED            4 OUTER ITERATIONS 
       AND A TOTAL OF          7 INNER ITERATIONS.
    ------------------------------------------------

 NO OUTPUT CONTROL FOR STRESS PERIOD   35   TIME STEP    9
 
 SOLVING FOR HEAD 
                                                   Max.-Head-Change                         Max.-Flux-Residual
  Residual-Control   Outer-Iter.   Inner-Iter.     Column Row Layer    Maximum-Head-Change  Column Row Layer    Maximum-Flux-Residual          L2-NORM 
          0                 1           2             4    7     1       0.6814948711E-01       4    7    1         0.3584644369E+01      0.7541470965E+01
          0                 2           2             4    7     1      -0.6629157478E-02       4    7    1        -0.3584692414E+00      0.7541490091E+00
          0                 3           2             4    7     1       0.4514203567E-03       4    7    1         0.2509281227E-01      0.5279042044E-01
          0                 4           1             4    7     1      -0.1796244169E-04       4    7    1        -0.1026297671E-02      0.2159131619E-02

    ------------------------------------------------
       NWT REQUIRED            4 OUTER ITERATIONS 
       AND A TOTAL OF          7 INNER ITERATIONS.
    ------------------------------------------------

 NO OUTPUT CONTROL FOR STRESS PERIOD   35   TIME STEP   10
 
 SOLVING FOR HEAD 
                                                   Max.-Head-Change                         Max.-Flux-Residual
  Residual-Control   Outer-Iter.   Inner-Iter.     Column Row Layer    Maximum-Head-Change  Column Row Layer    Maximum-Flux-Residual          L2-NORM 
          0                 1           2             4    7     1       0.6730723493E-01       4    7    1         0.3540856727E+01      0.7414746295E+01
          0                 2           2             4    7     1      -0.6547229108E-02       4    7    1        -0.3540904628E+00      0.7414765836E+00
          0                 3           2             4    7     1       0.4458413405E-03       4    7    1         0.2478629778E-01      0.5190332989E-01
          0                 4           1             4    7     1      -0.1774044701E-04       4    7    1        -0.1013761193E-02      0.2122847477E-02

    ------------------------------------------------
       NWT REQUIRED            4 OUTER ITERATIONS 
       AND A TOTAL OF          7 INNER ITERATIONS.
    ------------------------------------------------

 NO OUTPUT CONTROL FOR STRESS PERIOD   35   TIME STEP   11
 
 SOLVING FOR HEAD 
                                                   Max.-Head-Change                         Max.-Flux-Residual
  Residual-Control   Outer-Iter.   Inner-Iter.     Column Row Layer    Maximum-Head-Change  Column Row Layer    Maximum-Flux-Residual          L2-NORM 
          0                 1           2             4    7     1       0.6646641578E-01       4    7    1         0.3497093389E+01      0.7291946504E+01
          0                 2           2             4    7     1      -0.6476561867E-02       4    7    1        -0.3504508061E+00      0.7292573321E+00
          0                 3           2             4    7     1       0.4410291216E-03       4    7    1         0.2453151882E-01      0.5104799329E-01
          0                 4           1             4    7     1      -0.1754896471E-04       4    7    1        -0.1003340742E-02      0.2087866272E-02

    ------------------------------------------------
       NWT REQUIRED            4 OUTER ITERATIONS 
       AND A TOTAL OF          7 INNER ITERATIONS.
    ------------------------------------------------

 NO OUTPUT CONTROL FOR STRESS PERIOD   35   TIME STEP   12
 
 SOLVING FOR HEAD 
                                                   Max.-Head-Change                         Max.-Flux-Residual
  Residual-Control   Outer-Iter.   Inner-Iter.     Column Row Layer    Maximum-Head-Change  Column Row Layer    Maximum-Flux-Residual          L2-NORM 
          0                 1           2             4    7     1       0.6559825797E-01       4    7    1         0.3452818743E+01      0.7172816762E+01
          0                 2           2             4    7     1      -0.6380983785E-02       4    7    1        -0.3452868615E+00      0.7172839330E+00
          0                 3           2             4    7     1       0.4345097243E-03       4    7    1         0.2417004356E-01      0.5020599865E-01
          0                 4           1             4    7     1      -0.1728955160E-04       4    7    1        -0.9885563686E-03      0.2053427774E-02

    ------------------------------------------------
       NWT REQUIRED            4 OUTER ITERATIONS 
       AND A TOTAL OF          7 INNER ITERATIONS.
    ------------------------------------------------

 NO OUTPUT CONTROL FOR STRESS PERIOD   35   TIME STEP   13
 
 SOLVING FOR HEAD 
                                                   Max.-Head-Change                         Max.-Flux-Residual
  Residual-Control   Outer-Iter.   Inner-Iter.     Column Row Layer    Maximum-Head-Change  Column Row Layer    Maximum-Flux-Residual          L2-NORM 
          0                 1           2             4    7     1       0.6474566112E-01       4    7    1         0.3408304789E+01      0.7057180955E+01
          0                 2           2             4    7     1      -0.6298164923E-02       4    7    1        -0.3408354212E+00      0.7057589322E+00
          0                 3           2             4    7     1       0.4288809723E-03       4    7    1         0.2385844307E-01      0.4940310341E-01
          0                 4           1             4    7     1      -0.1706557845E-04       4    7    1        -0.9758118879E-03      0.2020588124E-02

    ------------------------------------------------
       NWT REQUIRED            4 OUTER ITERATIONS 
       AND A TOTAL OF          7 INNER ITERATIONS.
    ------------------------------------------------

 NO OUTPUT CONTROL FOR STRESS PERIOD   35   TIME STEP   14
 
 SOLVING FOR HEAD 
                                                   Max.-Head-Change                         Max.-Flux-Residual
  Residual-Control   Outer-Iter.   Inner-Iter.     Column Row Layer    Maximum-Head-Change  Column Row Layer    Maximum-Flux-Residual          L2-NORM 
          0                 1           2             4    7     1       0.6389771170E-01       4    7    1         0.3364006645E+01      0.6944882328E+01
          0                 2           2             4    7     1      -0.6215576890E-02       4    7    1        -0.3364055565E+00      0.6944904357E+00
          0                 3           2             4    7     1       0.4232570402E-03       4    7    1         0.2354835285E-01      0.4861430827E-01
          0                 4           1             4    7     1      -0.1684179665E-04       4    7    1        -0.9631291834E-03      0.1988346660E-02

    ------------------------------------------------
       NWT REQUIRED            4 OUTER ITERATIONS 
       AND A TOTAL OF          7 INNER ITERATIONS.
    ------------------------------------------------

 NO OUTPUT CONTROL FOR STRESS PERIOD   35   TIME STEP   15
 
 SOLVING FOR HEAD 
                                                   Max.-Head-Change                         Max.-Flux-Residual
  Residual-Control   Outer-Iter.   Inner-Iter.     Column Row Layer    Maximum-Head-Change  Column Row Layer    Maximum-Flux-Residual          L2-NORM 
          0                 1           2             4    7     1       0.6305511770E-01       4    7    1         0.3319946119E+01      0.6835787300E+01
          0                 2           2             4    7     1      -0.6133614644E-02       4    7    1        -0.3319994472E+00      0.6835809426E+00
          0                 3           2             4    7     1       0.4176757234E-03       4    7    1         0.2323992559E-01      0.4785064609E-01
          0                 4           1             4    7     1      -0.1661971090E-04       4    7    1        -0.9505145015E-03      0.1957093243E-02

    ------------------------------------------------
       NWT REQUIRED            4 OUTER ITERATIONS 
       AND A TOTAL OF          7 INNER ITERATIONS.
    ------------------------------------------------

 NO OUTPUT CONTROL FOR STRESS PERIOD   35   TIME STEP   16
 
 SOLVING FOR HEAD 
                                                   Max.-Head-Change                         Max.-Flux-Residual
  Residual-Control   Outer-Iter.   Inner-Iter.     Column Row Layer    Maximum-Head-Change  Column Row Layer    Maximum-Flux-Residual          L2-NORM 
          0                 1           2             4    7     1       0.6221863881E-01       4    7    1         0.3276172146E+01      0.6729760850E+01
          0                 2           2             4    7     1      -0.6052247157E-02       4    7    1        -0.3276219882E+00      0.6729783029E+00
          0                 3           2             4    7     1       0.4121349078E-03       4    7    1         0.2293350390E-01      0.4710844970E-01
          0                 4           1             4    7     1      -0.1639923694E-04       4    7    1        -0.9379818389E-03      0.1926737145E-02

    ------------------------------------------------
       NWT REQUIRED            4 OUTER ITERATIONS 
       AND A TOTAL OF          7 INNER ITERATIONS.
    ------------------------------------------------

 NO OUTPUT CONTROL FOR STRESS PERIOD   35   TIME STEP   17
 
 SOLVING FOR HEAD 
                                                   Max.-Head-Change                         Max.-Flux-Residual
  Residual-Control   Outer-Iter.   Inner-Iter.     Column Row Layer    Maximum-Head-Change  Column Row Layer    Maximum-Flux-Residual          L2-NORM 
          0                 1           2             4    7     1       0.6138880761E-01       4    7    1         0.3232715206E+01      0.6626667957E+01
          0                 2           2             4    7     1      -0.5971526245E-02       4    7    1        -0.3232762281E+00      0.6626690086E+00
          0                 3           2             4    7     1       0.4066381224E-03       4    7    1         0.2262930119E-01      0.4638680205E-01
          0                 4           1             4    7     1      -0.1618051476E-04       4    7    1        -0.9255399266E-03      0.1897223077E-02

    ------------------------------------------------
       NWT REQUIRED            4 OUTER ITERATIONS 
       AND A TOTAL OF          7 INNER ITERATIONS.
    ------------------------------------------------

 NO OUTPUT CONTROL FOR STRESS PERIOD   35   TIME STEP   18
 
 SOLVING FOR HEAD 
                                                   Max.-Head-Change                         Max.-Flux-Residual
  Residual-Control   Outer-Iter.   Inner-Iter.     Column Row Layer    Maximum-Head-Change  Column Row Layer    Maximum-Flux-Residual          L2-NORM 
          0                 1           2             4    7     1       0.6056610440E-01       4    7    1         0.3189602911E+01      0.6526378956E+01
          0                 2           2             4    7     1      -0.5891498638E-02       4    7    1        -0.3189649288E+00      0.6526400966E+00
          0                 3           2             4    7     1       0.4011885492E-03       4    7    1         0.2232751079E-01      0.4568477637E-01
          0                 4           1             4    7     1      -0.1596367101E-04       4    7    1        -0.9131966751E-03      0.1868506155E-02

    ------------------------------------------------
       NWT REQUIRED            4 OUTER ITERATIONS 
       AND A TOTAL OF          7 INNER ITERATIONS.
    ------------------------------------------------

 NO OUTPUT CONTROL FOR STRESS PERIOD   35   TIME STEP   19
 
 SOLVING FOR HEAD 
                                                   Max.-Head-Change                         Max.-Flux-Residual
  Residual-Control   Outer-Iter.   Inner-Iter.     Column Row Layer    Maximum-Head-Change  Column Row Layer    Maximum-Flux-Residual          L2-NORM 
          0                 1           2             4    7     1       0.5975082511E-01       4    7    1         0.3146852908E+01      0.6428773286E+01
          0                 2           2             4    7     1      -0.5812193127E-02       4    7    1        -0.3146898556E+00      0.6428795145E+00
          0                 3           2             4    7     1       0.3957881482E-03       4    7    1         0.2202825623E-01      0.4500153521E-01
          0                 4           1             4    7     1      -0.1574878373E-04       4    7    1        -0.9009571386E-03      0.1840566021E-02

    ------------------------------------------------
       NWT REQUIRED            4 OUTER ITERATIONS 
       AND A TOTAL OF          7 INNER ITERATIONS.
    ------------------------------------------------

 NO OUTPUT CONTROL FOR STRESS PERIOD   35   TIME STEP   20
 
 SOLVING FOR HEAD 
                                                   Max.-Head-Change                         Max.-Flux-Residual
  Residual-Control   Outer-Iter.   Inner-Iter.     Column Row Layer    Maximum-Head-Change  Column Row Layer    Maximum-Flux-Residual          L2-NORM 
          0                 1           2             4    7     1       0.5894348905E-01       4    7    1         0.3104495054E+01      0.6333729194E+01
          0                 2           2             4    7     1      -0.5733660237E-02       4    7    1        -0.3104539946E+00      0.6333750796E+00
          0                 3           2             4    7     1       0.3904403602E-03       4    7    1         0.2173174654E-01      0.4433622223E-01
          0                 4           1             4    7     1      -0.1553599005E-04       4    7    1        -0.8888298573E-03      0.1813350105E-02

    ------------------------------------------------
       NWT REQUIRED            4 OUTER ITERATIONS 
       AND A TOTAL OF          7 INNER ITERATIONS.
    ------------------------------------------------

 NO OUTPUT CONTROL FOR STRESS PERIOD   35   TIME STEP   21
 
 SOLVING FOR HEAD 
                                                   Max.-Head-Change                         Max.-Flux-Residual
  Residual-Control   Outer-Iter.   Inner-Iter.     Column Row Layer    Maximum-Head-Change  Column Row Layer    Maximum-Flux-Residual          L2-NORM 
          0                 1           2             4    7     1       0.5814430382E-01       4    7    1         0.3062541760E+01      0.6241152685E+01
          0                 2           2             4    7     1      -0.5655920167E-02       4    7    1        -0.3062585874E+00      0.6241174072E+00
          0                 3           2             4    7     1       0.3851465607E-03       4    7    1         0.2143806864E-01      0.4368819066E-01
          0                 4           1             4    7     1      -0.1532534465E-04       4    7    1        -0.8768184150E-03      0.1786848649E-02

    ------------------------------------------------
       NWT REQUIRED            4 OUTER ITERATIONS 
       AND A TOTAL OF          7 INNER ITERATIONS.
    ------------------------------------------------

 NO OUTPUT CONTROL FOR STRESS PERIOD   35   TIME STEP   22
 
 SOLVING FOR HEAD 
                                                   Max.-Head-Change                         Max.-Flux-Residual
  Residual-Control   Outer-Iter.   Inner-Iter.     Column Row Layer    Maximum-Head-Change  Column Row Layer    Maximum-Flux-Residual          L2-NORM 
          0                 1           2             4    7     1       0.5735397737E-01       4    7    1         0.3021032829E+01      0.6150953113E+01
          0                 2           2             4    7     1      -0.5579041790E-02       4    7    1        -0.3021076148E+00      0.6150974146E+00
          0                 3           2             4    7     1       0.3799114395E-03       4    7    1         0.2114750118E-01      0.4305678643E-01
          0                 4           1             4    7     1      -0.1511703461E-04       4    7    1        -0.8649341855E-03      0.1761025466E-02

    ------------------------------------------------
       NWT REQUIRED            4 OUTER ITERATIONS 
       AND A TOTAL OF          7 INNER ITERATIONS.
    ------------------------------------------------

 NO OUTPUT CONTROL FOR STRESS PERIOD   35   TIME STEP   23
 
 SOLVING FOR HEAD 
                                                   Max.-Head-Change                         Max.-Flux-Residual
  Residual-Control   Outer-Iter.   Inner-Iter.     Column Row Layer    Maximum-Head-Change  Column Row Layer    Maximum-Flux-Residual          L2-NORM 
          0                 1           2             4    7     1       0.5657235701E-01       4    7    1         0.2979961407E+01      0.6063019188E+01
          0                 2           2             4    7     1      -0.5503010257E-02       4    7    1        -0.2980003917E+00      0.6063039844E+00
          0                 3           2             4    7     1       0.3747339854E-03       4    7    1         0.2085999619E-01      0.4244124323E-01
          0                 4           1             4    7     1      -0.1491101872E-04       4    7    1        -0.8531752055E-03      0.1735846859E-02

    ------------------------------------------------
       NWT REQUIRED            4 OUTER ITERATIONS 
       AND A TOTAL OF          7 INNER ITERATIONS.
    ------------------------------------------------

 NO OUTPUT CONTROL FOR STRESS PERIOD   35   TIME STEP   24
 
 SOLVING FOR HEAD 
                                                   Max.-Head-Change                         Max.-Flux-Residual
  Residual-Control   Outer-Iter.   Inner-Iter.     Column Row Layer    Maximum-Head-Change  Column Row Layer    Maximum-Flux-Residual          L2-NORM 
          0                 1           2             4    7     1       0.5579981049E-01       4    7    1         0.2939348619E+01      0.5977266845E+01
          0                 2           2             4    7     1      -0.5427861346E-02       4    7    1        -0.2939390310E+00      0.5977287131E+00
          0                 3           2             4    7     1       0.3696166352E-03       4    7    1         0.2057570162E-01      0.4184097612E-01
          0                 4           1             4    7     1      -0.1470739472E-04       4    7    1        -0.8415475493E-03      0.1711297721E-02

    ------------------------------------------------
       NWT REQUIRED            4 OUTER ITERATIONS 
       AND A TOTAL OF          7 INNER ITERATIONS.
    ------------------------------------------------

 NO OUTPUT CONTROL FOR STRESS PERIOD   35   TIME STEP   25
 
 SOLVING FOR HEAD 
                                                   Max.-Head-Change                         Max.-Flux-Residual
  Residual-Control   Outer-Iter.   Inner-Iter.     Column Row Layer    Maximum-Head-Change  Column Row Layer    Maximum-Flux-Residual          L2-NORM 
          0                 1           2             4    7     1       0.5503679843E-01       4    7    1         0.2899220799E+01      0.5893622283E+01
          0                 2           2             4    7     1      -0.5353639868E-02       4    7    1        -0.2899261664E+00      0.5893642198E+00
          0                 3           2             4    7     1       0.3645624396E-03       4    7    1         0.2029480174E-01      0.4125545829E-01
          0                 4           1             4    7     1      -0.1450628338E-04       4    7    1        -0.8300587290E-03      0.1687348068E-02

    ------------------------------------------------
       NWT REQUIRED            4 OUTER ITERATIONS 
       AND A TOTAL OF          7 INNER ITERATIONS.
    ------------------------------------------------

 NO OUTPUT CONTROL FOR STRESS PERIOD   35   TIME STEP   26
 
 SOLVING FOR HEAD 
                                                   Max.-Head-Change                         Max.-Flux-Residual
  Residual-Control   Outer-Iter.   Inner-Iter.     Column Row Layer    Maximum-Head-Change  Column Row Layer    Maximum-Flux-Residual          L2-NORM 
          0                 1           2             4    7     1       0.5428307630E-01       4    7    1         0.2859565515E+01      0.5812003611E+01
          0                 2           2             4    7     1      -0.5280322039E-02       4    7    1        -0.2859605549E+00      0.5812023098E+00
          0                 3           2             4    7     1       0.3595697789E-03       4    7    1         0.2001720960E-01      0.4068412637E-01
          0                 4           1             4    7     1      -0.1430762057E-04       4    7    1        -0.8187051792E-03      0.1663984076E-02

    ------------------------------------------------
       NWT REQUIRED            4 OUTER ITERATIONS 
       AND A TOTAL OF          7 INNER ITERATIONS.
    ------------------------------------------------

 NO OUTPUT CONTROL FOR STRESS PERIOD   35   TIME STEP   27
 
 SOLVING FOR HEAD 
                                                   Max.-Head-Change                         Max.-Flux-Residual
  Residual-Control   Outer-Iter.   Inner-Iter.     Column Row Layer    Maximum-Head-Change  Column Row Layer    Maximum-Flux-Residual          L2-NORM 
          0                 1           2             4    7     1       0.5353918465E-01       4    7    1         0.2820413670E+01      0.5732331240E+01
          0                 2           2             4    7     1      -0.5207960445E-02       4    7    1        -0.2820452872E+00      0.5732350240E+00
          0                 3           2             4    7     1       0.3546422350E-03       4    7    1         0.1974314154E-01      0.4012641826E-01
          0                 4           1             4    7     1      -0.1411154883E-04       4    7    1        -0.8074957857E-03      0.1641172845E-02

    ------------------------------------------------
       NWT REQUIRED            4 OUTER ITERATIONS 
       AND A TOTAL OF          7 INNER ITERATIONS.
    ------------------------------------------------

 NO OUTPUT CONTROL FOR STRESS PERIOD   35   TIME STEP   28
 
 SOLVING FOR HEAD 
                                                   Max.-Head-Change                         Max.-Flux-Residual
  Residual-Control   Outer-Iter.   Inner-Iter.     Column Row Layer    Maximum-Head-Change  Column Row Layer    Maximum-Flux-Residual          L2-NORM 
          0                 1           2             4    7     1       0.5280495767E-01       4    7    1         0.2781756970E+01      0.5654537744E+01
          0                 2           2             4    7     1      -0.5136538961E-02       4    7    1        -0.2781795340E+00      0.5654556346E+00
          0                 3           2             4    7     1       0.3497787084E-03       4    7    1         0.1947253948E-01      0.3958185296E-01
          0                 4           1             4    7     1      -0.1391802486E-04       4    7    1        -0.7964281481E-03      0.1618890226E-02

    ------------------------------------------------
       NWT REQUIRED            4 OUTER ITERATIONS 
       AND A TOTAL OF          7 INNER ITERATIONS.
    ------------------------------------------------

 NO OUTPUT CONTROL FOR STRESS PERIOD   35   TIME STEP   29
 
 SOLVING FOR HEAD 
                                                   Max.-Head-Change                         Max.-Flux-Residual
  Residual-Control   Outer-Iter.   Inner-Iter.     Column Row Layer    Maximum-Head-Change  Column Row Layer    Maximum-Flux-Residual          L2-NORM 
          0                 1           2             4    7     1       0.5208075039E-01       4    7    1         0.2743615881E+01      0.5578558473E+01
          0                 2           2             4    7     1      -0.5066092125E-02       4    7    1        -0.2743653422E+00      0.5578576597E+00
          0                 3           2             4    7     1       0.3449815519E-03       4    7    1         0.1920554673E-01      0.3904999780E-01
          0                 4           1             4    7     1      -0.1372714123E-04       4    7    1        -0.7855081099E-03      0.1597146970E-02

    ------------------------------------------------
       NWT REQUIRED            4 OUTER ITERATIONS 
       AND A TOTAL OF          7 INNER ITERATIONS.
    ------------------------------------------------

 NO OUTPUT CONTROL FOR STRESS PERIOD   35   TIME STEP   30



 STREAM LISTING     PERIOD     35   STEP       30

 LAYER ROW COL. STREAM  RCH.  FLOW INTO     FLOW TO   FLOW OUT OF   OVRLND.     DIRECT     STREAM       STREAM     STREAM     STREAM   STREAMBED  STREAMBED
                SEG.NO.  NO.  STRM. RCH.    AQUIFER    STRM. RCH.    RUNOFF     PRECIP       ET          HEAD       DEPTH      WIDTH   CONDCTNC.   GRADIENT

   1    1    1     1     1    1.9000E+01  2.1427E-01   1.8786E+01  0.000E+00  0.000E+00  0.000E+00  1.09413E+03  1.082E+00  1.166E+01  5.249E-02  1.361E+00
   1    2    2     1     2    1.8786E+01  3.3054E-01   1.8455E+01  0.000E+00  0.000E+00  0.000E+00  1.08914E+03  1.077E+00  1.158E+01  8.107E-02  1.359E+00
   1    3    3     1     3    1.8455E+01  2.8064E-01   1.8175E+01  0.000E+00  0.000E+00  0.000E+00  1.08349E+03  1.072E+00  1.149E+01  6.892E-02  1.357E+00
   1    3    4     1     4    1.8175E+01  2.5740E-01   1.7917E+01  0.000E+00  0.000E+00  0.000E+00  1.07848E+03  1.068E+00  1.140E+01  6.328E-02  1.356E+00
   1    4    5     2     1    1.5917E+01  3.0542E-01   1.5612E+01  0.000E+00  0.000E+00  0.000E+00  1.07285E+03  9.157E-01  1.200E+01  7.800E-02  1.305E+00
   1    5    6     2     2    1.5612E+01  2.3438E-01   1.5377E+01  0.000E+00  0.000E+00  0.000E+00  1.06742E+03  9.063E-01  1.200E+01  6.000E-02  1.302E+00
   1    6    6     2     3    1.5377E+01  2.3388E-01   1.5143E+01  0.000E+00  0.000E+00  0.000E+00  1.06269E+03  8.980E-01  1.200E+01  6.000E-02  1.299E+00
   1    7    6     2     4    1.5143E+01  2.3338E-01   1.4910E+01  0.000E+00  0.000E+00  0.000E+00  1.05797E+03  8.897E-01  1.200E+01  6.000E-02  1.297E+00
   1    8    6     2     5    1.4910E+01  2.3289E-01   1.4677E+01  0.000E+00  0.000E+00  0.000E+00  1.05324E+03  8.814E-01  1.200E+01  6.000E-02  1.294E+00
   1    3    5     3     1    2.0000E+00  2.8252E-01   1.7175E+00  0.000E+00  0.000E+00  0.000E+00  1.07555E+03  1.909E+00  9.636E+00  7.227E-02  1.955E+00
   1    3    6     3     2    1.7175E+00  2.4905E-01   1.4684E+00  0.000E+00  0.000E+00  0.000E+00  1.07264E+03  1.727E+00  8.909E+00  6.682E-02  1.864E+00
   1    3    7     3     3    1.4684E+00  1.9718E-01   1.2712E+00  0.000E+00  0.000E+00  0.000E+00  1.06987E+03  1.555E+00  8.218E+00  5.547E-02  1.777E+00
   1    4    8     3     4    1.2712E+00  2.2567E-01   1.0456E+00  0.000E+00  0.000E+00  0.000E+00  1.06682E+03  1.364E+00  7.455E+00  6.709E-02  1.682E+00
   1    5    8     3     5    1.0456E+00  1.5790E-01   8.8768E-01  0.000E+00  0.000E+00  0.000E+00  1.06362E+03  1.164E+00  6.655E+00  4.991E-02  1.582E+00
   1    6    8     3     6    8.8768E-01  5.5980E-02   8.3170E-01  0.000E+00  0.000E+00  0.000E+00  1.06158E+03  1.036E+00  6.145E+00  1.844E-02  1.518E+00
   1    5   10     4     1    1.0000E+01  9.0919E-02   9.9091E+00  0.000E+00  0.000E+00  0.000E+00  1.07836E+03  6.368E-01  1.000E+01  2.500E-02  1.212E+00
   1    5    9     4     2    9.9091E+00  1.8158E-01   9.7275E+00  0.000E+00  0.000E+00  0.000E+00  1.07154E+03  6.315E-01  1.000E+01  5.000E-02  1.211E+00
   1    6    8     4     3    9.7275E+00  1.2689E-01   9.6006E+00  0.000E+00  0.000E+00  0.000E+00  1.06381E+03  6.256E-01  1.000E+01  3.500E-02  1.209E+00
   1    6    8     5     1    1.0432E+01  2.2686E-01   1.0205E+01  0.000E+00  0.000E+00  0.000E+00  1.05868E+03  6.790E-01  1.542E+01  6.166E-02  1.226E+00
   1    7    7     5     2    1.0205E+01  2.7894E-01   9.9265E+00  0.000E+00  0.000E+00  0.000E+00  1.05417E+03  6.732E-01  1.519E+01  7.594E-02  1.224E+00
   1    8    7     5     3    9.9265E+00  1.9221E-01   9.7343E+00  0.000E+00  0.000E+00  0.000E+00  1.04992E+03  6.676E-01  1.497E+01  5.241E-02  1.223E+00
   1    8    6     5     4    9.7343E+00  1.3577E-01   9.5985E+00  0.000E+00  0.000E+00  0.000E+00  1.04691E+03  6.637E-01  1.482E+01  3.706E-02  1.221E+00
   1    9    6     6     1    2.4276E+01  2.5176E-01   2.4024E+01  0.000E+00  0.000E+00  0.000E+00  1.04392E+03  1.196E+00  1.200E+01  6.000E-02  1.399E+00
   1   10    7     6     2    2.4024E+01  2.5131E-01   2.3773E+01  0.000E+00  0.000E+00  0.000E+00  1.03937E+03  1.188E+00  1.200E+01  6.000E-02  1.396E+00
   1   11    7     6     3    2.3773E+01  2.5086E-01   2.3522E+01  0.000E+00  0.000E+00  0.000E+00  1.03482E+03  1.181E+00  1.200E+01  6.000E-02  1.394E+00
   1   12    7     6     4    2.3522E+01  2.5041E-01   2.3271E+01  0.000E+00  0.000E+00  0.000E+00  1.03026E+03  1.173E+00  1.200E+01  6.000E-02  1.391E+00
   1   13    7     6     5    2.3271E+01  7.4069E-03   2.3264E+01  0.000E+00  0.000E+00  0.000E+00  1.02708E+03  1.170E+00  1.200E+01  2.400E-02  1.029E-01
   1   14    9     7     1    1.5000E+02  1.3552E+00   1.4864E+02  0.000E+00  0.000E+00  0.000E+00  1.03987E+03  2.288E+00  5.529E+01  5.593E-01  8.077E-01
   1   13    8     7     2    1.4864E+02  1.9223E+00   1.4672E+02  0.000E+00  0.000E+00  0.000E+00  1.03478E+03  2.279E+00  5.526E+01  6.148E-01  1.042E+00
   1   13    7     7     3    1.4672E+02  1.6299E+00   1.4509E+02  0.000E+00  0.000E+00  0.000E+00  1.02969E+03  2.269E+00  5.521E+01  5.584E-01  9.729E-01
   1   13    6     8     1    1.6836E+02  1.0700E+00   1.6729E+02  0.000E+00  0.000E+00  0.000E+00  1.02481E+03  2.938E+00  4.260E+01  4.341E-01  8.216E-01
   1   13    5     8     2    1.6729E+02  3.1593E-01   1.6697E+02  0.000E+00  0.000E+00  0.000E+00  1.01856E+03  2.933E+00  4.253E+01  4.334E-01  2.430E-01
   1   13    4     8     3    1.6697E+02 -1.9593E+00   1.6893E+02  0.000E+00  0.000E+00  0.000E+00  1.01231E+03  2.939E+00  4.261E+01  4.342E+00 -1.504E-01
   1   13    3     8     4    1.6893E+02 -3.4219E+00   1.7235E+02  0.000E+00  0.000E+00  0.000E+00  1.00608E+03  2.956E+00  4.287E+01  4.368E+00 -2.611E-01
   1   13    2     8     5    1.7235E+02 -2.5218E+00   1.7487E+02  0.000E+00  0.000E+00  0.000E+00  9.99851E+02  2.976E+00  4.315E+01  4.397E+00 -1.912E-01
   1   13    1     8     6    1.7487E+02 -1.9682E+00   1.7684E+02  0.000E+00  0.000E+00  0.000E+00  9.94865E+02  2.990E+00  4.335E+01  2.651E+00 -2.475E-01





UNSATURATED ZONE PACKAGE VOLUMETRIC BUDGET FOR  TIME STEP    30 STRESS PERIOD   35
  ------------------------------------------------------------------------------



     CUMULATIVE VOLUMES      L**3       RATES FOR THIS TIME STEP      L**3/T
     ------------------                 ------------------------

           IN:                                      IN:
           ---                                      ---
        INFILTRATION =  1589349094.6682          INFILTRATION =           4.4075

          OUT:                                     OUT:
          ----                                     ----
              UZF ET =  1495949624.1237                UZF ET =           3.7800
        UZF RECHARGE =      883910.3275          UZF RECHARGE =       0.0000E+00

            IN - OUT =    92515560.2170              IN - OUT =           0.6275

          STORAGE:                                 STORAGE:
          --------                                 --------
      STORAGE CHANGE =    92517192.8914        STORAGE CHANGE =           0.6275

 PERCENT DISCREPANCY IS DIFFERENCE BETWEEN IN-OUT MINUS CHANGE IN STORAGE
 DIVIDED BY THE AVERAGE OF IN AND OUT TIMES 100

 PERCENT DISCREPANCY =          -0.00     PERCENT DISCREPANCY =           0.00






1
  VOLUMETRIC BUDGET FOR ENTIRE MODEL AT END OF TIME STEP   30, STRESS PERIOD  35
  ------------------------------------------------------------------------------

     CUMULATIVE VOLUMES      L**3       RATES FOR THIS TIME STEP      L**3/T
     ------------------                 ------------------------

           IN:                                      IN:
           ---                                      ---
               AG WELLS  =  1195158016.0000                 AG WELLS  =           0.0000
      DIVERSION SEGMENTS =           0.0000        DIVERSION SEGMENTS =           0.0000
           GW IRRIGATION =           0.0000             GW IRRIGATION =           0.0000
           SW IRRIGATION =           0.0000             SW IRRIGATION =           0.0000
        SYSTEM LOSSES GW =           0.0000          SYSTEM LOSSES GW =           0.0000
        SYSTEM LOSSES SW =           0.0000          SYSTEM LOSSES SW =           0.0000

                TOTAL IN =  1195158016.0000                  TOTAL IN =           0.0000

          OUT:                                     OUT:
          ----                                     ----
               AG WELLS  =           0.0000                 AG WELLS  =           0.0000
      DIVERSION SEGMENTS =           0.0000        DIVERSION SEGMENTS =           0.0000
           GW IRRIGATION =  1195158016.0000             GW IRRIGATION =           0.0000
           SW IRRIGATION =           0.0000             SW IRRIGATION =           0.0000
        SYSTEM LOSSES GW =           0.0000          SYSTEM LOSSES GW =           0.0000
        SYSTEM LOSSES SW =           0.0000          SYSTEM LOSSES SW =           0.0000

               TOTAL OUT =  1195158016.0000                 TOTAL OUT =           0.0000

                IN - OUT =           0.0000                  IN - OUT =           0.0000

     PERCENT DISCREPANCY =           0.00         PERCENT DISCREPANCY =           0.00



1
  VOLUMETRIC BUDGET FOR ENTIRE MODEL AT END OF TIME STEP   30, STRESS PERIOD  35
  ------------------------------------------------------------------------------

     CUMULATIVE VOLUMES      L**3       RATES FOR THIS TIME STEP      L**3/T
     ------------------                 ------------------------

           IN:                                      IN:
           ---                                      ---
             STORAGE     =  1587317632.0000               STORAGE     =          12.6597
       CONSTANT HEAD     =           0.0000         CONSTANT HEAD     =           0.0000
     HEAD DEP BOUNDS     =    25576776.0000       HEAD DEP BOUNDS     =           0.2871
      STREAM LEAKAGE     =  1096805760.0000        STREAM LEAKAGE     =          12.0294
        UZF RECHARGE     =      883910.4375          UZF RECHARGE     =           0.0000
               GW ET     =           0.0000                 GW ET     =           0.0000
     SURFACE LEAKAGE     =           0.0000       SURFACE LEAKAGE     =           0.0000
           AG WELLS      =           0.0000             AG WELLS      =           0.0000

                TOTAL IN =  2710584064.0000                  TOTAL IN =          24.9761

          OUT:                                     OUT:
          ----                                     ----
             STORAGE     =   550409216.0000               STORAGE     =          14.8158
       CONSTANT HEAD     =           0.0000         CONSTANT HEAD     =           0.0000
     HEAD DEP BOUNDS     =    26193272.0000       HEAD DEP BOUNDS     =           0.2891
      STREAM LEAKAGE     =   921505472.0000        STREAM LEAKAGE     =           9.8712
        UZF RECHARGE     =           0.0000          UZF RECHARGE     =           0.0000
               GW ET     =    17319432.0000                 GW ET     =           0.0000
     SURFACE LEAKAGE     =           0.0000       SURFACE LEAKAGE     =           0.0000
           AG WELLS      =  1195158016.0000             AG WELLS      =           0.0000

               TOTAL OUT =  2710585344.0000                 TOTAL OUT =          24.9761

                IN - OUT =       -1280.0000                  IN - OUT =       1.1444E-05

     PERCENT DISCREPANCY =          -0.00         PERCENT DISCREPANCY =           0.00






         TIME SUMMARY AT END OF TIME STEP   30 IN STRESS PERIOD   35
                    SECONDS     MINUTES      HOURS       DAYS        YEARS
                    -----------------------------------------------------------
   TIME STEP LENGTH  87667.      1461.1      24.352      1.0147     2.77799E-03
 STRESS PERIOD TIME 2.63000E+06  43833.      730.56      30.440     8.33397E-02
         TOTAL TIME 8.95061E+07 1.49177E+06  24863.      1036.0      2.8363    
1
1
                            STRESS PERIOD NO.   36, LENGTH =   2630000.    
                            -----------------------------------------------

                              NUMBER OF TIME STEPS =    30

                               MULTIPLIER FOR DELT =     1.000

                            INITIAL TIME STEP SIZE =   87666.66    

 REUSING NON-PARAMETER GHB CELLS FROM LAST STRESS PERIOD

      2 GHB CELLS

 REUSING STREAM SEGMENT DATA FROM LAST STRESS PERIOD



            AREAL INFILTRATION RATE
 READING ON UNIT   19 WITH FORMAT: (10F4.0)            

            1           2           3           4           5           6           7           8           9          10
 ........................................................................................................................
   1   1.2000E-09   0.000       0.000       0.000       0.000       0.000       0.000       0.000       0.000       0.000    
   2   2.1000E-09  2.0000E-09  8.0000E-10  8.5000E-09   0.000       0.000       0.000       0.000       0.000       0.000    
   3   5.0000E-10  1.1000E-09  8.8000E-09  5.5000E-09   0.000       0.000       0.000       0.000       0.000       0.000    
   4   8.5000E-09  1.1000E-09  1.1000E-09  1.1000E-09  2.0000E-09   0.000       0.000       0.000       0.000       0.000    
   5   8.5000E-09  1.1000E-09  1.1000E-09  1.1000E-09  1.1000E-09   0.000       0.000       0.000       0.000       0.000    
   6   8.5000E-09  5.2000E-09  2.1000E-09  1.1000E-09  1.5000E-09   0.000       0.000       0.000       0.000       0.000    
   7   8.5000E-09  5.2000E-09  2.1000E-09  1.2000E-09  2.0000E-09   0.000       0.000       0.000       0.000       0.000    
   8   5.0000E-10  5.2000E-09  2.1000E-09  1.2000E-09  5.0000E-09   0.000       0.000       0.000       0.000       0.000    
   9   5.0000E-10  5.2000E-09  2.1000E-09  1.2000E-09  5.0000E-09   0.000       0.000       0.000       0.000       0.000    
  10   5.0000E-10  5.2000E-09  2.1000E-09  1.2000E-09  5.8000E-09   0.000       0.000       0.000       0.000       0.000    
  11   1.0000E-10  1.1000E-09  1.1000E-09  1.2000E-09  5.0000E-09   0.000       0.000       0.000       0.000       0.000    
  12   1.1000E-09  1.1000E-09  1.1000E-09  1.1000E-09  2.0000E-09   0.000       0.000       0.000       0.000       0.000    
  13   1.1000E-09  2.2000E-09  2.2000E-09  2.1000E-09  1.0000E-09   0.000       0.000       0.000       0.000       0.000    
  14   2.0000E-10  5.5000E-09  5.5000E-09  5.2000E-09  1.0000E-09   0.000       0.000       0.000       0.000       0.000    
  15    0.000      8.8000E-09  8.8000E-09   0.000       0.000       0.000       0.000       0.000       0.000       0.000    

                  ET RATE =  5.000000E-10

 USING ET EXTINCTION DEPTH FROM PREVIOUS STRESS PERIOD. CURRENT PERIOD IS:      36

 USING EXTINCTION WATER CONTENT FROM PREVIOUS STRESS PERIOD. CURRENT PERIOD IS:      36

 USING AIR ENTRY PRESSURE FROM PREVIOUS STRESS PERIOD. CURRENT PERIOD IS:      36

 USING ROOT PRESSURE HEAD FROM PREVIOUS STRESS PERIOD. CURRENT PERIOD IS:      36

 USING ROOT ACTIVITY FROM PREVIOUS STRESS PERIOD. CURRENT PERIOD IS:      36

 PROCESSING AG STRESS PERIOD DATA

 READING AG STRESS PERIOD DATA

 READING IRRIGATION WELL

 END PROCESSING AG STRESS PERIOD DATA OPTIONS
 
 SOLVING FOR HEAD 
                                                   Max.-Head-Change                         Max.-Flux-Residual
  Residual-Control   Outer-Iter.   Inner-Iter.     Column Row Layer    Maximum-Head-Change  Column Row Layer    Maximum-Flux-Residual          L2-NORM 
          0                 1           2             4    7     1       0.5136635117E-01       4    7    1         0.2705979745E+01      0.5504326094E+01
          0                 2           2             4    7     1      -0.4996599349E-02       4    7    1        -0.2706016461E+00      0.5504343724E+00
          0                 3           2             4    7     1       0.3402493634E-03       4    7    1         0.1894208866E-01      0.3853037080E-01
          0                 4           1             4    7     1      -0.1353884313E-04       4    7    1        -0.7747326677E-03      0.1575892505E-02

    ------------------------------------------------
       NWT REQUIRED            4 OUTER ITERATIONS 
       AND A TOTAL OF          7 INNER ITERATIONS.
    ------------------------------------------------

 NO OUTPUT CONTROL FOR STRESS PERIOD   36   TIME STEP    1
 
 SOLVING FOR HEAD 
                                                   Max.-Head-Change                         Max.-Flux-Residual
  Residual-Control   Outer-Iter.   Inner-Iter.     Column Row Layer    Maximum-Head-Change  Column Row Layer    Maximum-Flux-Residual          L2-NORM 
          0                 1           2             4    7     1       0.5066207438E-01       4    7    1         0.2668866658E+01      0.5431786412E+01
          0                 2           2             4    7     1      -0.4928091220E-02       4    7    1        -0.2668902554E+00      0.5431803603E+00
          0                 3           2             4    7     1       0.3355842257E-03       4    7    1         0.1868229198E-01      0.3802259089E-01
          0                 4           1             4    7     1      -0.1335321300E-04       4    7    1        -0.7641069749E-03      0.1555125583E-02

    ------------------------------------------------
       NWT REQUIRED            4 OUTER ITERATIONS 
       AND A TOTAL OF          7 INNER ITERATIONS.
    ------------------------------------------------

 NO OUTPUT CONTROL FOR STRESS PERIOD   36   TIME STEP    2
 
 SOLVING FOR HEAD 
                                                   Max.-Head-Change                         Max.-Flux-Residual
  Residual-Control   Outer-Iter.   Inner-Iter.     Column Row Layer    Maximum-Head-Change  Column Row Layer    Maximum-Flux-Residual          L2-NORM 
          0                 1           2             4    7     1       0.4996793262E-01       4    7    1         0.2632278387E+01      0.5360874025E+01
          0                 2           2             4    7     1      -0.4860568962E-02       4    7    1        -0.2632313471E+00      0.5360890592E+00
          0                 3           2             4    7     1       0.3309862218E-03       4    7    1         0.1842616906E-01      0.3752619664E-01
          0                 4           1             4    7     1      -0.1317025383E-04       4    7    1        -0.7536315195E-03      0.1534824002E-02

    ------------------------------------------------
       NWT REQUIRED            4 OUTER ITERATIONS 
       AND A TOTAL OF          7 INNER ITERATIONS.
    ------------------------------------------------

 NO OUTPUT CONTROL FOR STRESS PERIOD   36   TIME STEP    3
 
 SOLVING FOR HEAD 
                                                   Max.-Head-Change                         Max.-Flux-Residual
  Residual-Control   Outer-Iter.   Inner-Iter.     Column Row Layer    Maximum-Head-Change  Column Row Layer    Maximum-Flux-Residual          L2-NORM 
          0                 1           2             4    7     1       0.4928379494E-01       4    7    1         0.2596208315E+01      0.5291544341E+01
          0                 2           2             4    7     1      -0.4794019841E-02       4    7    1        -0.2596242595E+00      0.5291560463E+00
          0                 3           2             4    7     1       0.3264544846E-03       4    7    1         0.1817367357E-01      0.3704088407E-01
          0                 4           1             4    7     1      -0.1298993165E-04       4    7    1        -0.7433044316E-03      0.1514973299E-02

    ------------------------------------------------
       NWT REQUIRED            4 OUTER ITERATIONS 
       AND A TOTAL OF          7 INNER ITERATIONS.
    ------------------------------------------------

 NO OUTPUT CONTROL FOR STRESS PERIOD   36   TIME STEP    4
 
 SOLVING FOR HEAD 
                                                   Max.-Head-Change                         Max.-Flux-Residual
  Residual-Control   Outer-Iter.   Inner-Iter.     Column Row Layer    Maximum-Head-Change  Column Row Layer    Maximum-Flux-Residual          L2-NORM 
          0                 1           2             4    7     1       0.4860978603E-01       4    7    1         0.2560664193E+01      0.5223742118E+01
          0                 2           2             4    7     1      -0.4728455988E-02       4    7    1        -0.2560697678E+00      0.5223757769E+00
          0                 3           2             4    7     1       0.3219898410E-03       4    7    1         0.1792485980E-01      0.3656626109E-01
          0                 4           1             4    7     1      -0.1281227940E-04       4    7    1        -0.7331279389E-03      0.1495555950E-02

    ------------------------------------------------
       NWT REQUIRED            4 OUTER ITERATIONS 
       AND A TOTAL OF          7 INNER ITERATIONS.
    ------------------------------------------------

 NO OUTPUT CONTROL FOR STRESS PERIOD   36   TIME STEP    5
 
 SOLVING FOR HEAD 
                                                   Max.-Head-Change                         Max.-Flux-Residual
  Residual-Control   Outer-Iter.   Inner-Iter.     Column Row Layer    Maximum-Head-Change  Column Row Layer    Maximum-Flux-Residual          L2-NORM 
          0                 1           2             4    7     1       0.4794587801E-01       4    7    1         0.2525645216E+01      0.5157421274E+01
          0                 2           2             4    7     1      -0.4663874690E-02       4    7    1        -0.2525677917E+00      0.5157436411E+00
          0                 3           2             4    7     1       0.3175921049E-03       4    7    1         0.1767972210E-01      0.3610201406E-01
          0                 4           1             4    7     1      -0.1263728914E-04       4    7    1        -0.7231017742E-03      0.1476580655E-02

    ------------------------------------------------
       NWT REQUIRED            4 OUTER ITERATIONS 
       AND A TOTAL OF          7 INNER ITERATIONS.
    ------------------------------------------------

 NO OUTPUT CONTROL FOR STRESS PERIOD   36   TIME STEP    6
 
 SOLVING FOR HEAD 
                                                   Max.-Head-Change                         Max.-Flux-Residual
  Residual-Control   Outer-Iter.   Inner-Iter.     Column Row Layer    Maximum-Head-Change  Column Row Layer    Maximum-Flux-Residual          L2-NORM 
          0                 1           2             4    7     1       0.4729215771E-01       4    7    1         0.2491157211E+01      0.5092524945E+01
          0                 2           2             4    7     1      -0.4600284397E-02       4    7    1        -0.2491189141E+00      0.5092539534E+00
          0                 3           2             4    7     1       0.3132618532E-03       4    7    1         0.1743830132E-01      0.3564773509E-01
          0                 4           1             4    7     1      -0.1246498433E-04       4    7    1        -0.7132276476E-03      0.1457996882E-02

    ------------------------------------------------
       NWT REQUIRED            4 OUTER ITERATIONS 
       AND A TOTAL OF          7 INNER ITERATIONS.
    ------------------------------------------------

 NO OUTPUT CONTROL FOR STRESS PERIOD   36   TIME STEP    7
 
 SOLVING FOR HEAD 
                                                   Max.-Head-Change                         Max.-Flux-Residual
  Residual-Control   Outer-Iter.   Inner-Iter.     Column Row Layer    Maximum-Head-Change  Column Row Layer    Maximum-Flux-Residual          L2-NORM 
          0                 1           2             4    7     1       0.4664830193E-01       4    7    1         0.2457182865E+01      0.5029017376E+01
          0                 2           2             4    7     1      -0.4537653668E-02       4    7    1        -0.2457214033E+00      0.5029031460E+00
          0                 3           2             4    7     1       0.3089969435E-03       4    7    1         0.1720047617E-01      0.3520317806E-01
          0                 4           1             4    7     1      -0.1229527980E-04       4    7    1        -0.7035005904E-03      0.1439811254E-02

    ------------------------------------------------
       NWT REQUIRED            4 OUTER ITERATIONS 
       AND A TOTAL OF          7 INNER ITERATIONS.
    ------------------------------------------------

 NO OUTPUT CONTROL FOR STRESS PERIOD   36   TIME STEP    8
 
 SOLVING FOR HEAD 
                                                   Max.-Head-Change                         Max.-Flux-Residual
  Residual-Control   Outer-Iter.   Inner-Iter.     Column Row Layer    Maximum-Head-Change  Column Row Layer    Maximum-Flux-Residual          L2-NORM 
          0                 1           2             4    7     1       0.4601451815E-01       4    7    1         0.2423734511E+01      0.4966847350E+01
          0                 2           2             4    7     1      -0.4476002690E-02       4    7    1        -0.2423764930E+00      0.4966861116E+00
          0                 3           2             4    7     1       0.3047987512E-03       4    7    1         0.1696633304E-01      0.3476799153E-01
          0                 4           1             4    7     1      -0.1212822954E-04       4    7    1        -0.6939241227E-03      0.1422012551E-02

    ------------------------------------------------
       NWT REQUIRED            4 OUTER ITERATIONS 
       AND A TOTAL OF          7 INNER ITERATIONS.
    ------------------------------------------------

 NO OUTPUT CONTROL FOR STRESS PERIOD   36   TIME STEP    9
 
 SOLVING FOR HEAD 
                                                   Max.-Head-Change                         Max.-Flux-Residual
  Residual-Control   Outer-Iter.   Inner-Iter.     Column Row Layer    Maximum-Head-Change  Column Row Layer    Maximum-Flux-Residual          L2-NORM 
          0                 1           2             4    7     1       0.4539059555E-01       4    7    1         0.2390801087E+01      0.4905985165E+01
          0                 2           2             4    7     1      -0.4415310954E-02       4    7    1        -0.2390830771E+00      0.4905998555E+00
          0                 3           2             4    7     1       0.3006658794E-03       4    7    1         0.1673579453E-01      0.3434206914E-01
          0                 4           1             4    7     1      -0.1196377886E-04       4    7    1        -0.6844950778E-03      0.1404880198E-02

    ------------------------------------------------
       NWT REQUIRED            4 OUTER ITERATIONS 
       AND A TOTAL OF          7 INNER ITERATIONS.
    ------------------------------------------------

 NO OUTPUT CONTROL FOR STRESS PERIOD   36   TIME STEP   10
 
 SOLVING FOR HEAD 
                                                   Max.-Head-Change                         Max.-Flux-Residual
  Residual-Control   Outer-Iter.   Inner-Iter.     Column Row Layer    Maximum-Head-Change  Column Row Layer    Maximum-Flux-Residual          L2-NORM 
          0                 1           2             4    7     1       0.4477658404E-01       4    7    1         0.2358386211E+01      0.4846381471E+01
          0                 2           2             4    7     1      -0.4355583316E-02       4    7    1        -0.2358415173E+00      0.4846394110E+00
          0                 3           2             4    7     1       0.2965986592E-03       4    7    1         0.1650888593E-01      0.3392471294E-01
          0                 4           1             4    7     1      -0.1180194019E-04       4    7    1        -0.6752145014E-03      0.1387515621E-02

    ------------------------------------------------
       NWT REQUIRED            4 OUTER ITERATIONS 
       AND A TOTAL OF          7 INNER ITERATIONS.
    ------------------------------------------------

 NO OUTPUT CONTROL FOR STRESS PERIOD   36   TIME STEP   11
 
 SOLVING FOR HEAD 
                                                   Max.-Head-Change                         Max.-Flux-Residual
  Residual-Control   Outer-Iter.   Inner-Iter.     Column Row Layer    Maximum-Head-Change  Column Row Layer    Maximum-Flux-Residual          L2-NORM 
          0                 1           2             4    7     1       0.4417239001E-01       4    7    1         0.2326485198E+01      0.4788004481E+01
          0                 2           2             4    7     1      -0.4296810672E-02       4    7    1        -0.2326513451E+00      0.4788016603E+00
          0                 3           2             4    7     1       0.2925964700E-03       4    7    1         0.1628557446E-01      0.3351607073E-01
          0                 4           1             4    7     1      -0.1164268890E-04       4    7    1        -0.6660810323E-03      0.1370809251E-02

    ------------------------------------------------
       NWT REQUIRED            4 OUTER ITERATIONS 
       AND A TOTAL OF          7 INNER ITERATIONS.
    ------------------------------------------------

 NO OUTPUT CONTROL FOR STRESS PERIOD   36   TIME STEP   12
 
 SOLVING FOR HEAD 
                                                   Max.-Head-Change                         Max.-Flux-Residual
  Residual-Control   Outer-Iter.   Inner-Iter.     Column Row Layer    Maximum-Head-Change  Column Row Layer    Maximum-Flux-Residual          L2-NORM 
          0                 1           2             4    7     1       0.4357791267E-01       4    7    1         0.2295093193E+01      0.4730823474E+01
          0                 2           2             4    7     1      -0.4238983216E-02       4    7    1        -0.2295120752E+00      0.4730835151E+00
          0                 3           2             4    7     1       0.2886586449E-03       4    7    1         0.1606582612E-01      0.3311579903E-01
          0                 4           1             4    7     1      -0.1148599955E-04       4    7    1        -0.6570933301E-03      0.1354432517E-02

    ------------------------------------------------
       NWT REQUIRED            4 OUTER ITERATIONS 
       AND A TOTAL OF          7 INNER ITERATIONS.
    ------------------------------------------------

 NO OUTPUT CONTROL FOR STRESS PERIOD   36   TIME STEP   13
 
 SOLVING FOR HEAD 
                                                   Max.-Head-Change                         Max.-Flux-Residual
  Residual-Control   Outer-Iter.   Inner-Iter.     Column Row Layer    Maximum-Head-Change  Column Row Layer    Maximum-Flux-Residual          L2-NORM 
          0                 1           2             4    7     1       0.4299304426E-01       4    7    1         0.2264204973E+01      0.4674791417E+01
          0                 2           2             4    7     1      -0.4182090468E-02       4    7    1        -0.2264231851E+00      0.4674802617E+00
          0                 3           2             4    7     1       0.2847844695E-03       4    7    1         0.1584960436E-01      0.3272357148E-01
          0                 4           1             4    7     1      -0.1133184254E-04       4    7    1        -0.6482498491E-03      0.1338390171E-02

    ------------------------------------------------
       NWT REQUIRED            4 OUTER ITERATIONS 
       AND A TOTAL OF          7 INNER ITERATIONS.
    ------------------------------------------------

 NO OUTPUT CONTROL FOR STRESS PERIOD   36   TIME STEP   14
 
 SOLVING FOR HEAD 
                                                   Max.-Head-Change                         Max.-Flux-Residual
  Residual-Control   Outer-Iter.   Inner-Iter.     Column Row Layer    Maximum-Head-Change  Column Row Layer    Maximum-Flux-Residual          L2-NORM 
          0                 1           2             4    7     1       0.4241766990E-01       4    7    1         0.2233814950E+01      0.4619879346E+01
          0                 2           2             4    7     1      -0.4126121253E-02       4    7    1        -0.2233841161E+00      0.4619890047E+00
          0                 3           2             4    7     1       0.2809731829E-03       4    7    1         0.1563687008E-01      0.3233918397E-01
          0                 4           1             4    7     1      -0.1118018760E-04       4    7    1        -0.6395489938E-03      0.1322669347E-02

    ------------------------------------------------
       NWT REQUIRED            4 OUTER ITERATIONS 
       AND A TOTAL OF          7 INNER ITERATIONS.
    ------------------------------------------------

 NO OUTPUT CONTROL FOR STRESS PERIOD   36   TIME STEP   15
 
 SOLVING FOR HEAD 
                                                   Max.-Head-Change                         Max.-Flux-Residual
  Residual-Control   Outer-Iter.   Inner-Iter.     Column Row Layer    Maximum-Head-Change  Column Row Layer    Maximum-Flux-Residual          L2-NORM 
          0                 1           2             4    7     1       0.4185180654E-01       4    7    1         0.2203924445E+01      0.4566059151E+01
          0                 2           2             4    7     1      -0.4071077221E-02       4    7    1        -0.2203950004E+00      0.4566069195E+00
          0                 3           2             4    7     1       0.2772248977E-03       4    7    1         0.1542763250E-01      0.3196240980E-01
          0                 4           1             4    7     1      -0.1103103991E-04       4    7    1        -0.6309911646E-03      0.1307256668E-02

    ------------------------------------------------
       NWT REQUIRED            4 OUTER ITERATIONS 
       AND A TOTAL OF          7 INNER ITERATIONS.
    ------------------------------------------------

 NO OUTPUT CONTROL FOR STRESS PERIOD   36   TIME STEP   16
 
 SOLVING FOR HEAD 
                                                   Max.-Head-Change                         Max.-Flux-Residual
  Residual-Control   Outer-Iter.   Inner-Iter.     Column Row Layer    Maximum-Head-Change  Column Row Layer    Maximum-Flux-Residual          L2-NORM 
          0                 1           2             4    7     1       0.4129532971E-01       4    7    1         0.2174527063E+01      0.4513300057E+01
          0                 2           2             4    7     1      -0.4016946261E-02       4    7    1        -0.2174551984E+00      0.4513309762E+00
          0                 3           2             4    7     1       0.2735387891E-03       4    7    1         0.1522184687E-01      0.3159311261E-01
          0                 4           1             4    7     1      -0.1088436585E-04       4    7    1        -0.6225745090E-03      0.1292161675E-02

    ------------------------------------------------
       NWT REQUIRED            4 OUTER ITERATIONS 
       AND A TOTAL OF          7 INNER ITERATIONS.
    ------------------------------------------------

 NO OUTPUT CONTROL FOR STRESS PERIOD   36   TIME STEP   17
 
 SOLVING FOR HEAD 
                                                   Max.-Head-Change                         Max.-Flux-Residual
  Residual-Control   Outer-Iter.   Inner-Iter.     Column Row Layer    Maximum-Head-Change  Column Row Layer    Maximum-Flux-Residual          L2-NORM 
          0                 1           2             4    7     1       0.4074797179E-01       4    7    1         0.2145609068E+01      0.4461569465E+01
          0                 2           2             4    7     1      -0.3963702345E-02       4    7    1        -0.2145633365E+00      0.4461578693E+00
          0                 3           2             4    7     1       0.2699130850E-03       4    7    1         0.1501941705E-01      0.3123099487E-01
          0                 4           1             4    7     1      -0.1074009600E-04       4    7    1        -0.6142951206E-03      0.1277347845E-02

    ------------------------------------------------
       NWT REQUIRED            4 OUTER ITERATIONS 
       AND A TOTAL OF          7 INNER ITERATIONS.
    ------------------------------------------------

 NO OUTPUT CONTROL FOR STRESS PERIOD   36   TIME STEP   18
 
 SOLVING FOR HEAD 
                                                   Max.-Head-Change                         Max.-Flux-Residual
  Residual-Control   Outer-Iter.   Inner-Iter.     Column Row Layer    Maximum-Head-Change  Column Row Layer    Maximum-Flux-Residual          L2-NORM 
          0                 1           2             4    7     1       0.4020974336E-01       4    7    1         0.2117171144E+01      0.4410842511E+01
          0                 2           2             4    7     1      -0.3911346500E-02       4    7    1        -0.2117194832E+00      0.4410851404E+00
          0                 3           2             4    7     1       0.2663478548E-03       4    7    1         0.1482034780E-01      0.3087591298E-01
          0                 4           1             4    7     1      -0.1059823243E-04       4    7    1        -0.6061531874E-03      0.1262823409E-02

    ------------------------------------------------
       NWT REQUIRED            4 OUTER ITERATIONS 
       AND A TOTAL OF          7 INNER ITERATIONS.
    ------------------------------------------------

 NO OUTPUT CONTROL FOR STRESS PERIOD   36   TIME STEP   19
 
 SOLVING FOR HEAD 
                                                   Max.-Head-Change                         Max.-Flux-Residual
  Residual-Control   Outer-Iter.   Inner-Iter.     Column Row Layer    Maximum-Head-Change  Column Row Layer    Maximum-Flux-Residual          L2-NORM 
          0                 1           2             4    7     1       0.3968037461E-01       4    7    1         0.2089199281E+01      0.4361087240E+01
          0                 2           2             4    7     1      -0.3859852480E-02       4    7    1        -0.2089222373E+00      0.4361095671E+00
          0                 3           2             4    7     1       0.2628413112E-03       4    7    1         0.1462454107E-01      0.3052761626E-01
          0                 4           1             4    7     1      -0.1045870319E-04       4    7    1        -0.5981446554E-03      0.1248576977E-02

    ------------------------------------------------
       NWT REQUIRED            4 OUTER ITERATIONS 
       AND A TOTAL OF          7 INNER ITERATIONS.
    ------------------------------------------------

 NO OUTPUT CONTROL FOR STRESS PERIOD   36   TIME STEP   20
 
 SOLVING FOR HEAD 
                                                   Max.-Head-Change                         Max.-Flux-Residual
  Residual-Control   Outer-Iter.   Inner-Iter.     Column Row Layer    Maximum-Head-Change  Column Row Layer    Maximum-Flux-Residual          L2-NORM 
          0                 1           2             4    7     1       0.3916000082E-01       4    7    1         0.2061701332E+01      0.4312282016E+01
          0                 2           2             4    7     1      -0.3809233446E-02       4    7    1        -0.2061723843E+00      0.4312289972E+00
          0                 3           2             4    7     1       0.2593943514E-03       4    7    1         0.1443205184E-01      0.3018596827E-01
          0                 4           1             4    7     1      -0.1032154581E-04       4    7    1        -0.5902718447E-03      0.1247258365E-02

    ------------------------------------------------
       NWT REQUIRED            4 OUTER ITERATIONS 
       AND A TOTAL OF          7 INNER ITERATIONS.
    ------------------------------------------------

 NO OUTPUT CONTROL FOR STRESS PERIOD   36   TIME STEP   21
 
 SOLVING FOR HEAD 
                                                   Max.-Head-Change                         Max.-Flux-Residual
  Residual-Control   Outer-Iter.   Inner-Iter.     Column Row Layer    Maximum-Head-Change  Column Row Layer    Maximum-Flux-Residual          L2-NORM 
          0                 1           2             4    7     1       0.3864847928E-01       4    7    1         0.2034669750E+01      0.4264405987E+01
          0                 2           2             4    7     1      -0.3759475515E-02       4    7    1        -0.2034691694E+00      0.4264412141E+00
          0                 3           2             4    7     1       0.2560060286E-03       4    7    1         0.1424282724E-01      0.2985084085E-01
          0                 4           1             4    7     1      -0.1018672103E-04       4    7    1        -0.5825325402E-03      0.1221167356E-02

    ------------------------------------------------
       NWT REQUIRED            4 OUTER ITERATIONS 
       AND A TOTAL OF          7 INNER ITERATIONS.
    ------------------------------------------------

 NO OUTPUT CONTROL FOR STRESS PERIOD   36   TIME STEP   22
 
 SOLVING FOR HEAD 
                                                   Max.-Head-Change                         Max.-Flux-Residual
  Residual-Control   Outer-Iter.   Inner-Iter.     Column Row Layer    Maximum-Head-Change  Column Row Layer    Maximum-Flux-Residual          L2-NORM 
          0                 1           2             4    7     1       0.3814539365E-01       4    7    1         0.2008082571E+01      0.4217419152E+01
          0                 2           2             4    7     1      -0.3710538187E-02       4    7    1        -0.2008103961E+00      0.4217426350E+00
          0                 3           2             4    7     1       0.2526735861E-03       4    7    1         0.1405671356E-01      0.2952194281E-01
          0                 4           1             4    7     1      -0.1005412005E-04       4    7    1        -0.5749204768E-03      0.1207458065E-02

    ------------------------------------------------
       NWT REQUIRED            4 OUTER ITERATIONS 
       AND A TOTAL OF          7 INNER ITERATIONS.
    ------------------------------------------------

 NO OUTPUT CONTROL FOR STRESS PERIOD   36   TIME STEP   23
 
 SOLVING FOR HEAD 
                                                   Max.-Head-Change                         Max.-Flux-Residual
  Residual-Control   Outer-Iter.   Inner-Iter.     Column Row Layer    Maximum-Head-Change  Column Row Layer    Maximum-Flux-Residual          L2-NORM 
          0                 1           2             4    7     1       0.3765101854E-01       4    7    1         0.1981954623E+01      0.4171320026E+01
          0                 2           2             4    7     1      -0.3662448140E-02       4    7    1        -0.1981975473E+00      0.4171097787E+00
          0                 3           2             4    7     1       0.2493988398E-03       4    7    1         0.1387381456E-01      0.2919763231E-01
          0                 4           1             4    7     1      -0.9923814832E-05       4    7    1        -0.5674399017E-03      0.1194182063E-02

    ------------------------------------------------
       NWT REQUIRED            4 OUTER ITERATIONS 
       AND A TOTAL OF          7 INNER ITERATIONS.
    ------------------------------------------------

 NO OUTPUT CONTROL FOR STRESS PERIOD   36   TIME STEP   24
 
 SOLVING FOR HEAD 
                                                   Max.-Head-Change                         Max.-Flux-Residual
  Residual-Control   Outer-Iter.   Inner-Iter.     Column Row Layer    Maximum-Head-Change  Column Row Layer    Maximum-Flux-Residual          L2-NORM 
          0                 1           2             4    7     1       0.3716479473E-01       4    7    1         0.1956256445E+01      0.4126084249E+01
          0                 2           2             4    7     1      -0.3615150462E-02       4    7    1        -0.1956276768E+00      0.4125747659E+00
          0                 3           2             4    7     1       0.2461780510E-03       4    7    1         0.1369392406E-01      0.2888017904E-01
          0                 4           1             4    7     1      -0.9795656514E-05       4    7    1        -0.5600823654E-03      0.1181199465E-02

    ------------------------------------------------
       NWT REQUIRED            4 OUTER ITERATIONS 
       AND A TOTAL OF          7 INNER ITERATIONS.
    ------------------------------------------------

 NO OUTPUT CONTROL FOR STRESS PERIOD   36   TIME STEP   25
 
 SOLVING FOR HEAD 
                                                   Max.-Head-Change                         Max.-Flux-Residual
  Residual-Control   Outer-Iter.   Inner-Iter.     Column Row Layer    Maximum-Head-Change  Column Row Layer    Maximum-Flux-Residual          L2-NORM 
          0                 1           2             4    7     1       0.3668699270E-01       4    7    1         0.1931002774E+01      0.4081714730E+01
          0                 2           2             4    7     1      -0.3568673220E-02       4    7    1        -0.1931022584E+00      0.4081721103E+00
          0                 3           2             4    7     1       0.2430131306E-03       4    7    1         0.1351714518E-01      0.2857195511E-01
          0                 4           1             4    7     1      -0.9669721311E-05       4    7    1        -0.5528520990E-03      0.1168763140E-02

    ------------------------------------------------
       NWT REQUIRED            4 OUTER ITERATIONS 
       AND A TOTAL OF          7 INNER ITERATIONS.
    ------------------------------------------------

 NO OUTPUT CONTROL FOR STRESS PERIOD   36   TIME STEP   26
 
 SOLVING FOR HEAD 
                                                   Max.-Head-Change                         Max.-Flux-Residual
  Residual-Control   Outer-Iter.   Inner-Iter.     Column Row Layer    Maximum-Head-Change  Column Row Layer    Maximum-Flux-Residual          L2-NORM 
          0                 1           2             4    7     1       0.3621719227E-01       4    7    1         0.1906171119E+01      0.4038179302E+01
          0                 2           2             4    7     1      -0.3522973713E-02       4    7    1        -0.1906190428E+00      0.4038185310E+00
          0                 3           2             4    7     1       0.2399011708E-03       4    7    1         0.1334332049E-01      0.2826724291E-01
          0                 4           1             4    7     1      -0.9545893633E-05       4    7    1        -0.5457426580E-03      0.1156125277E-02

    ------------------------------------------------
       NWT REQUIRED            4 OUTER ITERATIONS 
       AND A TOTAL OF          7 INNER ITERATIONS.
    ------------------------------------------------

 NO OUTPUT CONTROL FOR STRESS PERIOD   36   TIME STEP   27
 
 SOLVING FOR HEAD 
                                                   Max.-Head-Change                         Max.-Flux-Residual
  Residual-Control   Outer-Iter.   Inner-Iter.     Column Row Layer    Maximum-Head-Change  Column Row Layer    Maximum-Flux-Residual          L2-NORM 
          0                 1           2             4    7     1       0.3575552583E-01       4    7    1         0.1881768932E+01      0.3995443849E+01
          0                 2           2             4    7     1      -0.3478065440E-02       4    7    1        -0.1881787754E+00      0.3995449429E+00
          0                 3           2             4    7     1       0.2368430910E-03       4    7    1         0.1317250217E-01      0.2796809309E-01
          0                 4           1             4    7     1      -0.9424209400E-05       4    7    1        -0.5387561685E-03      0.1143892992E-02

    ------------------------------------------------
       NWT REQUIRED            4 OUTER ITERATIONS 
       AND A TOTAL OF          7 INNER ITERATIONS.
    ------------------------------------------------

 NO OUTPUT CONTROL FOR STRESS PERIOD   36   TIME STEP   28
 
 SOLVING FOR HEAD 
                                                   Max.-Head-Change                         Max.-Flux-Residual
  Residual-Control   Outer-Iter.   Inner-Iter.     Column Row Layer    Maximum-Head-Change  Column Row Layer    Maximum-Flux-Residual          L2-NORM 
          0                 1           2             4    7     1       0.3530157425E-01       4    7    1         0.1857773902E+01      0.3953470430E+01
          0                 2           2             4    7     1      -0.3433907631E-02       4    7    1        -0.1857792248E+00      0.3953475700E+00
          0                 3           2             4    7     1       0.2338361146E-03       4    7    1         0.1300453399E-01      0.2767427072E-01
          0                 4           1             4    7     1      -0.9304559473E-05       4    7    1        -0.5318862668E-03      0.1131876898E-02

    ------------------------------------------------
       NWT REQUIRED            4 OUTER ITERATIONS 
       AND A TOTAL OF          7 INNER ITERATIONS.
    ------------------------------------------------

 NO OUTPUT CONTROL FOR STRESS PERIOD   36   TIME STEP   29
 
 SOLVING FOR HEAD 
                                                   Max.-Head-Change                         Max.-Flux-Residual
  Residual-Control   Outer-Iter.   Inner-Iter.     Column Row Layer    Maximum-Head-Change  Column Row Layer    Maximum-Flux-Residual          L2-NORM 
          0                 1           2             4    7     1       0.3485546786E-01       4    7    1         0.1834193443E+01      0.3912245756E+01
          0                 2           2             4    7     1      -0.3390512962E-02       4    7    1        -0.1834211326E+00      0.3912250680E+00
          0                 3           2             4    7     1       0.2308811052E-03       4    7    1         0.1283946790E-01      0.2738569170E-01
          0                 4           1             4    7     1      -0.9186976546E-05       4    7    1        -0.5251350508E-03      0.1120070750E-02

    ------------------------------------------------
       NWT REQUIRED            4 OUTER ITERATIONS 
       AND A TOTAL OF          7 INNER ITERATIONS.
    ------------------------------------------------

 NO OUTPUT CONTROL FOR STRESS PERIOD   36   TIME STEP   30



 STREAM LISTING     PERIOD     36   STEP       30

 LAYER ROW COL. STREAM  RCH.  FLOW INTO     FLOW TO   FLOW OUT OF   OVRLND.     DIRECT     STREAM       STREAM     STREAM     STREAM   STREAMBED  STREAMBED
                SEG.NO.  NO.  STRM. RCH.    AQUIFER    STRM. RCH.    RUNOFF     PRECIP       ET          HEAD       DEPTH      WIDTH   CONDCTNC.   GRADIENT

   1    1    1     1     1    1.9000E+01  2.1427E-01   1.8786E+01  0.000E+00  0.000E+00  0.000E+00  1.09413E+03  1.082E+00  1.166E+01  5.249E-02  1.361E+00
   1    2    2     1     2    1.8786E+01  3.3054E-01   1.8455E+01  0.000E+00  0.000E+00  0.000E+00  1.08914E+03  1.077E+00  1.158E+01  8.107E-02  1.359E+00
   1    3    3     1     3    1.8455E+01  2.8064E-01   1.8175E+01  0.000E+00  0.000E+00  0.000E+00  1.08349E+03  1.072E+00  1.149E+01  6.892E-02  1.357E+00
   1    3    4     1     4    1.8175E+01  2.5740E-01   1.7917E+01  0.000E+00  0.000E+00  0.000E+00  1.07848E+03  1.068E+00  1.140E+01  6.328E-02  1.356E+00
   1    4    5     2     1    1.5917E+01  3.0542E-01   1.5612E+01  0.000E+00  0.000E+00  0.000E+00  1.07285E+03  9.157E-01  1.200E+01  7.800E-02  1.305E+00
   1    5    6     2     2    1.5612E+01  2.3438E-01   1.5377E+01  0.000E+00  0.000E+00  0.000E+00  1.06742E+03  9.063E-01  1.200E+01  6.000E-02  1.302E+00
   1    6    6     2     3    1.5377E+01  2.3388E-01   1.5143E+01  0.000E+00  0.000E+00  0.000E+00  1.06269E+03  8.980E-01  1.200E+01  6.000E-02  1.299E+00
   1    7    6     2     4    1.5143E+01  2.3338E-01   1.4910E+01  0.000E+00  0.000E+00  0.000E+00  1.05797E+03  8.897E-01  1.200E+01  6.000E-02  1.297E+00
   1    8    6     2     5    1.4910E+01  2.3289E-01   1.4677E+01  0.000E+00  0.000E+00  0.000E+00  1.05324E+03  8.814E-01  1.200E+01  6.000E-02  1.294E+00
   1    3    5     3     1    2.0000E+00  2.8252E-01   1.7175E+00  0.000E+00  0.000E+00  0.000E+00  1.07555E+03  1.909E+00  9.636E+00  7.227E-02  1.955E+00
   1    3    6     3     2    1.7175E+00  2.4905E-01   1.4684E+00  0.000E+00  0.000E+00  0.000E+00  1.07264E+03  1.727E+00  8.909E+00  6.682E-02  1.864E+00
   1    3    7     3     3    1.4684E+00  1.9718E-01   1.2712E+00  0.000E+00  0.000E+00  0.000E+00  1.06987E+03  1.555E+00  8.218E+00  5.547E-02  1.777E+00
   1    4    8     3     4    1.2712E+00  2.2567E-01   1.0456E+00  0.000E+00  0.000E+00  0.000E+00  1.06682E+03  1.364E+00  7.455E+00  6.709E-02  1.682E+00
   1    5    8     3     5    1.0456E+00  1.5790E-01   8.8768E-01  0.000E+00  0.000E+00  0.000E+00  1.06362E+03  1.164E+00  6.655E+00  4.991E-02  1.582E+00
   1    6    8     3     6    8.8768E-01  5.5980E-02   8.3170E-01  0.000E+00  0.000E+00  0.000E+00  1.06158E+03  1.036E+00  6.145E+00  1.844E-02  1.518E+00
   1    5   10     4     1    1.0000E+01  9.0919E-02   9.9091E+00  0.000E+00  0.000E+00  0.000E+00  1.07836E+03  6.368E-01  1.000E+01  2.500E-02  1.212E+00
   1    5    9     4     2    9.9091E+00  1.8158E-01   9.7275E+00  0.000E+00  0.000E+00  0.000E+00  1.07154E+03  6.315E-01  1.000E+01  5.000E-02  1.211E+00
   1    6    8     4     3    9.7275E+00  1.2689E-01   9.6006E+00  0.000E+00  0.000E+00  0.000E+00  1.06381E+03  6.256E-01  1.000E+01  3.500E-02  1.209E+00
   1    6    8     5     1    1.0432E+01  2.2686E-01   1.0205E+01  0.000E+00  0.000E+00  0.000E+00  1.05868E+03  6.790E-01  1.542E+01  6.166E-02  1.226E+00
   1    7    7     5     2    1.0205E+01  2.7894E-01   9.9265E+00  0.000E+00  0.000E+00  0.000E+00  1.05417E+03  6.732E-01  1.519E+01  7.594E-02  1.224E+00
   1    8    7     5     3    9.9265E+00  1.9221E-01   9.7343E+00  0.000E+00  0.000E+00  0.000E+00  1.04992E+03  6.676E-01  1.497E+01  5.241E-02  1.223E+00
   1    8    6     5     4    9.7343E+00  1.3577E-01   9.5985E+00  0.000E+00  0.000E+00  0.000E+00  1.04691E+03  6.637E-01  1.482E+01  3.706E-02  1.221E+00
   1    9    6     6     1    2.4276E+01  2.5176E-01   2.4024E+01  0.000E+00  0.000E+00  0.000E+00  1.04392E+03  1.196E+00  1.200E+01  6.000E-02  1.399E+00
   1   10    7     6     2    2.4024E+01  2.5131E-01   2.3773E+01  0.000E+00  0.000E+00  0.000E+00  1.03937E+03  1.188E+00  1.200E+01  6.000E-02  1.396E+00
   1   11    7     6     3    2.3773E+01  2.5086E-01   2.3522E+01  0.000E+00  0.000E+00  0.000E+00  1.03482E+03  1.181E+00  1.200E+01  6.000E-02  1.394E+00
   1   12    7     6     4    2.3522E+01  2.5041E-01   2.3271E+01  0.000E+00  0.000E+00  0.000E+00  1.03026E+03  1.173E+00  1.200E+01  6.000E-02  1.391E+00
   1   13    7     6     5    2.3271E+01  7.8249E-03   2.3264E+01  0.000E+00  0.000E+00  0.000E+00  1.02708E+03  1.170E+00  1.200E+01  2.400E-02  1.087E-01
   1   14    9     7     1    1.5000E+02  1.3572E+00   1.4864E+02  0.000E+00  0.000E+00  0.000E+00  1.03987E+03  2.288E+00  5.529E+01  5.593E-01  8.089E-01
   1   13    8     7     2    1.4864E+02  1.9274E+00   1.4672E+02  0.000E+00  0.000E+00  0.000E+00  1.03478E+03  2.279E+00  5.526E+01  6.148E-01  1.045E+00
   1   13    7     7     3    1.4672E+02  1.6395E+00   1.4508E+02  0.000E+00  0.000E+00  0.000E+00  1.02969E+03  2.269E+00  5.521E+01  5.584E-01  9.787E-01
   1   13    6     8     1    1.6834E+02  1.0809E+00   1.6726E+02  0.000E+00  0.000E+00  0.000E+00  1.02481E+03  2.938E+00  4.260E+01  4.341E-01  8.300E-01
   1   13    5     8     2    1.6726E+02  3.2775E-01   1.6693E+02  0.000E+00  0.000E+00  0.000E+00  1.01856E+03  2.933E+00  4.253E+01  4.334E-01  2.521E-01
   1   13    4     8     3    1.6693E+02 -1.9151E+00   1.6885E+02  0.000E+00  0.000E+00  0.000E+00  1.01231E+03  2.938E+00  4.261E+01  4.342E+00 -1.470E-01
   1   13    3     8     4    1.6885E+02 -3.4032E+00   1.7225E+02  0.000E+00  0.000E+00  0.000E+00  1.00608E+03  2.956E+00  4.286E+01  4.367E+00 -2.597E-01
   1   13    2     8     5    1.7225E+02 -2.5182E+00   1.7477E+02  0.000E+00  0.000E+00  0.000E+00  9.99850E+02  2.975E+00  4.314E+01  4.396E+00 -1.910E-01
   1   13    1     8     6    1.7477E+02 -1.9674E+00   1.7673E+02  0.000E+00  0.000E+00  0.000E+00  9.94864E+02  2.989E+00  4.334E+01  2.650E+00 -2.475E-01





UNSATURATED ZONE PACKAGE VOLUMETRIC BUDGET FOR  TIME STEP    30 STRESS PERIOD   36
  ------------------------------------------------------------------------------



     CUMULATIVE VOLUMES      L**3       RATES FOR THIS TIME STEP      L**3/T
     ------------------                 ------------------------

           IN:                                      IN:
           ---                                      ---
        INFILTRATION =  1600940819.2263          INFILTRATION =           4.4075

          OUT:                                     OUT:
          ----                                     ----
              UZF ET =  1497856373.9634                UZF ET =           0.7250
        UZF RECHARGE =      883910.3275          UZF RECHARGE =       0.0000E+00

            IN - OUT =   102200534.9354              IN - OUT =           3.6825

          STORAGE:                                 STORAGE:
          --------                                 --------
      STORAGE CHANGE =   102202167.5474        STORAGE CHANGE =           3.6825

 PERCENT DISCREPANCY IS DIFFERENCE BETWEEN IN-OUT MINUS CHANGE IN STORAGE
 DIVIDED BY THE AVERAGE OF IN AND OUT TIMES 100

 PERCENT DISCREPANCY =          -0.00     PERCENT DISCREPANCY =           0.00






1
  VOLUMETRIC BUDGET FOR ENTIRE MODEL AT END OF TIME STEP   30, STRESS PERIOD  36
  ------------------------------------------------------------------------------

     CUMULATIVE VOLUMES      L**3       RATES FOR THIS TIME STEP      L**3/T
     ------------------                 ------------------------

           IN:                                      IN:
           ---                                      ---
               AG WELLS  =  1195158016.0000                 AG WELLS  =           0.0000
      DIVERSION SEGMENTS =           0.0000        DIVERSION SEGMENTS =           0.0000
           GW IRRIGATION =           0.0000             GW IRRIGATION =           0.0000
           SW IRRIGATION =           0.0000             SW IRRIGATION =           0.0000
        SYSTEM LOSSES GW =           0.0000          SYSTEM LOSSES GW =           0.0000
        SYSTEM LOSSES SW =           0.0000          SYSTEM LOSSES SW =           0.0000

                TOTAL IN =  1195158016.0000                  TOTAL IN =           0.0000

          OUT:                                     OUT:
          ----                                     ----
               AG WELLS  =           0.0000                 AG WELLS  =           0.0000
      DIVERSION SEGMENTS =           0.0000        DIVERSION SEGMENTS =           0.0000
           GW IRRIGATION =  1195158016.0000             GW IRRIGATION =           0.0000
           SW IRRIGATION =           0.0000             SW IRRIGATION =           0.0000
        SYSTEM LOSSES GW =           0.0000          SYSTEM LOSSES GW =           0.0000
        SYSTEM LOSSES SW =           0.0000          SYSTEM LOSSES SW =           0.0000

               TOTAL OUT =  1195158016.0000                 TOTAL OUT =           0.0000

                IN - OUT =           0.0000                  IN - OUT =           0.0000

     PERCENT DISCREPANCY =           0.00         PERCENT DISCREPANCY =           0.00



1
  VOLUMETRIC BUDGET FOR ENTIRE MODEL AT END OF TIME STEP   30, STRESS PERIOD  36
  ------------------------------------------------------------------------------

     CUMULATIVE VOLUMES      L**3       RATES FOR THIS TIME STEP      L**3/T
     ------------------                 ------------------------

           IN:                                      IN:
           ---                                      ---
             STORAGE     =  1616283136.0000               STORAGE     =           9.6322
       CONSTANT HEAD     =           0.0000         CONSTANT HEAD     =           0.0000
     HEAD DEP BOUNDS     =    26331978.0000       HEAD DEP BOUNDS     =           0.2872
      STREAM LEAKAGE     =  1128495872.0000        STREAM LEAKAGE     =          12.0692
        UZF RECHARGE     =      883910.4375          UZF RECHARGE     =           0.0000
               GW ET     =           0.0000                 GW ET     =           0.0000
     SURFACE LEAKAGE     =           0.0000       SURFACE LEAKAGE     =           0.0000
           AG WELLS      =           0.0000             AG WELLS      =           0.0000

                TOTAL IN =  2771994880.0000                  TOTAL IN =          21.9886

          OUT:                                     OUT:
          ----                                     ----
             STORAGE     =   585188608.0000               STORAGE     =          11.8957
       CONSTANT HEAD     =           0.0000         CONSTANT HEAD     =           0.0000
     HEAD DEP BOUNDS     =    26953516.0000       HEAD DEP BOUNDS     =           0.2891
      STREAM LEAKAGE     =   947376704.0000        STREAM LEAKAGE     =           9.8039
        UZF RECHARGE     =           0.0000          UZF RECHARGE     =           0.0000
               GW ET     =    17319432.0000                 GW ET     =           0.0000
     SURFACE LEAKAGE     =           0.0000       SURFACE LEAKAGE     =           0.0000
           AG WELLS      =  1195158016.0000             AG WELLS      =           0.0000

               TOTAL OUT =  2771996160.0000                 TOTAL OUT =          21.9886

                IN - OUT =       -1280.0000                  IN - OUT =       1.3351E-05

     PERCENT DISCREPANCY =          -0.00         PERCENT DISCREPANCY =           0.00






         TIME SUMMARY AT END OF TIME STEP   30 IN STRESS PERIOD   36
                    SECONDS     MINUTES      HOURS       DAYS        YEARS
                    -----------------------------------------------------------
   TIME STEP LENGTH  87667.      1461.1      24.352      1.0147     2.77799E-03
 STRESS PERIOD TIME 2.63000E+06  43833.      730.56      30.440     8.33397E-02
         TOTAL TIME 9.21360E+07 1.53560E+06  25593.      1066.4      2.9196    
1
1
                            STRESS PERIOD NO.   37, LENGTH =   2630000.    
                            -----------------------------------------------

                              NUMBER OF TIME STEPS =    30

                               MULTIPLIER FOR DELT =     1.000

                            INITIAL TIME STEP SIZE =   87666.66    

 REUSING NON-PARAMETER GHB CELLS FROM LAST STRESS PERIOD

      2 GHB CELLS

 REUSING STREAM SEGMENT DATA FROM LAST STRESS PERIOD



            AREAL INFILTRATION RATE
 READING ON UNIT   19 WITH FORMAT: (10F4.0)            

            1           2           3           4           5           6           7           8           9          10
 ........................................................................................................................
   1   1.2000E-09   0.000       0.000       0.000       0.000       0.000       0.000       0.000       0.000       0.000    
   2   2.1000E-09  2.0000E-09  8.0000E-10  8.5000E-09   0.000       0.000       0.000       0.000       0.000       0.000    
   3   5.0000E-10  1.1000E-09  8.8000E-09  5.5000E-09   0.000       0.000       0.000       0.000       0.000       0.000    
   4   8.5000E-09  1.1000E-09  1.1000E-09  1.1000E-09  2.0000E-09   0.000       0.000       0.000       0.000       0.000    
   5   8.5000E-09  1.1000E-09  1.1000E-09  1.1000E-09  1.1000E-09   0.000       0.000       0.000       0.000       0.000    
   6   8.5000E-09  5.2000E-09  2.1000E-09  1.1000E-09  1.5000E-09   0.000       0.000       0.000       0.000       0.000    
   7   8.5000E-09  5.2000E-09  2.1000E-09  1.2000E-09  2.0000E-09   0.000       0.000       0.000       0.000       0.000    
   8   5.0000E-10  5.2000E-09  2.1000E-09  1.2000E-09  5.0000E-09   0.000       0.000       0.000       0.000       0.000    
   9   5.0000E-10  5.2000E-09  2.1000E-09  1.2000E-09  5.0000E-09   0.000       0.000       0.000       0.000       0.000    
  10   5.0000E-10  5.2000E-09  2.1000E-09  1.2000E-09  5.8000E-09   0.000       0.000       0.000       0.000       0.000    
  11   1.0000E-10  1.1000E-09  1.1000E-09  1.2000E-09  5.0000E-09   0.000       0.000       0.000       0.000       0.000    
  12   1.1000E-09  1.1000E-09  1.1000E-09  1.1000E-09  2.0000E-09   0.000       0.000       0.000       0.000       0.000    
  13   1.1000E-09  2.2000E-09  2.2000E-09  2.1000E-09  1.0000E-09   0.000       0.000       0.000       0.000       0.000    
  14   2.0000E-10  5.5000E-09  5.5000E-09  5.2000E-09  1.0000E-09   0.000       0.000       0.000       0.000       0.000    
  15    0.000      8.8000E-09  8.8000E-09   0.000       0.000       0.000       0.000       0.000       0.000       0.000    

                  ET RATE =  5.000000E-10

 USING ET EXTINCTION DEPTH FROM PREVIOUS STRESS PERIOD. CURRENT PERIOD IS:      37

 USING EXTINCTION WATER CONTENT FROM PREVIOUS STRESS PERIOD. CURRENT PERIOD IS:      37

 USING AIR ENTRY PRESSURE FROM PREVIOUS STRESS PERIOD. CURRENT PERIOD IS:      37

 USING ROOT PRESSURE HEAD FROM PREVIOUS STRESS PERIOD. CURRENT PERIOD IS:      37

 USING ROOT ACTIVITY FROM PREVIOUS STRESS PERIOD. CURRENT PERIOD IS:      37

 PROCESSING AG STRESS PERIOD DATA

 READING AG STRESS PERIOD DATA

 READING IRRIGATION WELL

 END PROCESSING AG STRESS PERIOD DATA OPTIONS
 
 SOLVING FOR HEAD 
                                                   Max.-Head-Change                         Max.-Flux-Residual
  Residual-Control   Outer-Iter.   Inner-Iter.     Column Row Layer    Maximum-Head-Change  Column Row Layer    Maximum-Flux-Residual          L2-NORM 
          0                 1           2             4    7     1       0.3441692694E-01       4    7    1         0.1811012452E+01      0.3871754669E+01
          0                 2           2             4    7     1      -0.3347854225E-02       4    7    1        -0.1811029883E+00      0.3871759148E+00
          0                 3           2             4    7     1       0.2279762098E-03       4    7    1         0.1267719817E-01      0.2710225386E-01
          0                 4           1             4    7     1      -0.9071387975E-05       4    7    1        -0.5184981990E-03      0.1108494306E-02

    ------------------------------------------------
       NWT REQUIRED            4 OUTER ITERATIONS 
       AND A TOTAL OF          7 INNER ITERATIONS.
    ------------------------------------------------

 NO OUTPUT CONTROL FOR STRESS PERIOD   37   TIME STEP    1
 
 SOLVING FOR HEAD 
                                                   Max.-Head-Change                         Max.-Flux-Residual
  Residual-Control   Outer-Iter.   Inner-Iter.     Column Row Layer    Maximum-Head-Change  Column Row Layer    Maximum-Flux-Residual          L2-NORM 
          0                 1           2             4    7     1       0.3398594240E-01       4    7    1         0.1788231001E+01      0.3831979771E+01
          0                 2           2             4    7     1      -0.3305930536E-02       4    7    1        -0.1788247993E+00      0.3831983941E+00
          0                 3           2             4    7     1       0.2251213686E-03       4    7    1         0.1251772529E-01      0.2682382909E-01
          0                 4           1             4    7     1      -0.8957791456E-05       4    7    1        -0.5119757645E-03      0.1097093288E-02

    ------------------------------------------------
       NWT REQUIRED            4 OUTER ITERATIONS 
       AND A TOTAL OF          7 INNER ITERATIONS.
    ------------------------------------------------

 NO OUTPUT CONTROL FOR STRESS PERIOD   37   TIME STEP    2
 
 SOLVING FOR HEAD 
                                                   Max.-Head-Change                         Max.-Flux-Residual
  Residual-Control   Outer-Iter.   Inner-Iter.     Column Row Layer    Maximum-Head-Change  Column Row Layer    Maximum-Flux-Residual          L2-NORM 
          0                 1           2             4    7     1       0.3356223571E-01       4    7    1         0.1765834044E+01      0.3792899596E+01
          0                 2           2             4    7     1      -0.3264714798E-02       4    7    1        -0.1765850608E+00      0.3792903342E+00
          0                 3           2             4    7     1       0.2223147353E-03       4    7    1         0.1236094391E-01      0.2655026698E-01
          0                 4           1             4    7     1      -0.8846112618E-05       4    7    1        -0.5055633849E-03      0.1085908216E-02

    ------------------------------------------------
       NWT REQUIRED            4 OUTER ITERATIONS 
       AND A TOTAL OF          7 INNER ITERATIONS.
    ------------------------------------------------

 NO OUTPUT CONTROL FOR STRESS PERIOD   37   TIME STEP    3
 
 SOLVING FOR HEAD 
                                                   Max.-Head-Change                         Max.-Flux-Residual
  Residual-Control   Outer-Iter.   Inner-Iter.     Column Row Layer    Maximum-Head-Change  Column Row Layer    Maximum-Flux-Residual          L2-NORM 
          0                 1           2             4    7     1       0.3314580108E-01       4    7    1         0.1743821716E+01      0.3754494683E+01
          0                 2           2             4    7     1      -0.3224206452E-02       4    7    1        -0.1743837863E+00      0.3754498107E+00
          0                 3           2             4    7     1       0.2195562731E-03       4    7    1         0.1220685503E-01      0.2628142983E-01
          0                 4           1             4    7     1      -0.8736350885E-05       4    7    1        -0.4992611327E-03      0.1074917670E-02

    ------------------------------------------------
       NWT REQUIRED            4 OUTER ITERATIONS 
       AND A TOTAL OF          7 INNER ITERATIONS.
    ------------------------------------------------

 NO OUTPUT CONTROL FOR STRESS PERIOD   37   TIME STEP    4
 
 SOLVING FOR HEAD 
                                                   Max.-Head-Change                         Max.-Flux-Residual
  Residual-Control   Outer-Iter.   Inner-Iter.     Column Row Layer    Maximum-Head-Change  Column Row Layer    Maximum-Flux-Residual          L2-NORM 
          0                 1           2             4    7     1       0.3273650288E-01       4    7    1         0.1722186428E+01      0.3716765640E+01
          0                 2           2             4    7     1      -0.3184392301E-02       4    7    1        -0.1722202170E+00      0.3716768691E+00
          0                 3           2             4    7     1       0.2168450831E-03       4    7    1         0.1205540551E-01      0.2601730389E-01
          0                 4           1             4    7     1      -0.8628469761E-05       4    7    1        -0.4930668374E-03      0.1064097883E-02

    ------------------------------------------------
       NWT REQUIRED            4 OUTER ITERATIONS 
       AND A TOTAL OF          7 INNER ITERATIONS.
    ------------------------------------------------

 NO OUTPUT CONTROL FOR STRESS PERIOD   37   TIME STEP    5
 
 SOLVING FOR HEAD 
                                                   Max.-Head-Change                         Max.-Flux-Residual
  Residual-Control   Outer-Iter.   Inner-Iter.     Column Row Layer    Maximum-Head-Change  Column Row Layer    Maximum-Flux-Residual          L2-NORM 
          0                 1           2             4    7     1       0.3233406125E-01       4    7    1         0.1700913859E+01      0.3679671355E+01
          0                 2           2             4    7     1      -0.3145245124E-02       4    7    1        -0.1700929206E+00      0.3679674159E+00
          0                 3           2             4    7     1       0.2141793111E-03       4    7    1         0.1190649507E-01      0.2575765931E-01
          0                 4           1             4    7     1      -0.8522396486E-05       4    7    1        -0.4869763964E-03      0.1053489700E-02

    ------------------------------------------------
       NWT REQUIRED            4 OUTER ITERATIONS 
       AND A TOTAL OF          7 INNER ITERATIONS.
    ------------------------------------------------

 NO OUTPUT CONTROL FOR STRESS PERIOD   37   TIME STEP    6
 
 SOLVING FOR HEAD 
                                                   Max.-Head-Change                         Max.-Flux-Residual
  Residual-Control   Outer-Iter.   Inner-Iter.     Column Row Layer    Maximum-Head-Change  Column Row Layer    Maximum-Flux-Residual          L2-NORM 
          0                 1           2             4    7     1       0.3193861097E-01       4    7    1         0.1680011368E+01      0.3643213539E+01
          0                 2           2             4    7     1      -0.3106778029E-02       4    7    1        -0.1680026331E+00      0.3643216011E+00
          0                 3           2             4    7     1       0.2115598500E-03       4    7    1         0.1176017524E-01      0.2550244602E-01
          0                 4           1             4    7     1      -0.8418165253E-05       4    7    1        -0.4809918994E-03      0.1043051369E-02

    ------------------------------------------------
       NWT REQUIRED            4 OUTER ITERATIONS 
       AND A TOTAL OF          7 INNER ITERATIONS.
    ------------------------------------------------

 NO OUTPUT CONTROL FOR STRESS PERIOD   37   TIME STEP    7
 
 SOLVING FOR HEAD 
                                                   Max.-Head-Change                         Max.-Flux-Residual
  Residual-Control   Outer-Iter.   Inner-Iter.     Column Row Layer    Maximum-Head-Change  Column Row Layer    Maximum-Flux-Residual          L2-NORM 
          0                 1           2             4    7     1       0.3154987794E-01       4    7    1         0.1659464074E+01      0.3607375207E+01
          0                 2           2             4    7     1      -0.3068964355E-02       4    7    1        -0.1659478663E+00      0.3607377303E+00
          0                 3           2             4    7     1       0.2089848846E-03       4    7    1         0.1161634186E-01      0.2525156773E-01
          0                 4           1             4    7     1      -0.8315705372E-05       4    7    1        -0.4751091083E-03      0.1032932663E-02

    ------------------------------------------------
       NWT REQUIRED            4 OUTER ITERATIONS 
       AND A TOTAL OF          7 INNER ITERATIONS.
    ------------------------------------------------

 NO OUTPUT CONTROL FOR STRESS PERIOD   37   TIME STEP    8
 
 SOLVING FOR HEAD 
                                                   Max.-Head-Change                         Max.-Flux-Residual
  Residual-Control   Outer-Iter.   Inner-Iter.     Column Row Layer    Maximum-Head-Change  Column Row Layer    Maximum-Flux-Residual          L2-NORM 
          0                 1           2             4    7     1       0.3116772627E-01       4    7    1         0.1639265055E+01      0.3572137628E+01
          0                 2           2             4    7     1      -0.3031790883E-02       4    7    1        -0.1639279280E+00      0.3572139470E+00
          0                 3           2             4    7     1       0.2064535141E-03       4    7    1         0.1147494646E-01      0.2500490917E-01
          0                 4           1             4    7     1      -0.8214979659E-05       4    7    1        -0.4693260264E-03      0.1022700347E-02

    ------------------------------------------------
       NWT REQUIRED            4 OUTER ITERATIONS 
       AND A TOTAL OF          7 INNER ITERATIONS.
    ------------------------------------------------

 NO OUTPUT CONTROL FOR STRESS PERIOD   37   TIME STEP    9
 
 SOLVING FOR HEAD 
                                                   Max.-Head-Change                         Max.-Flux-Residual
  Residual-Control   Outer-Iter.   Inner-Iter.     Column Row Layer    Maximum-Head-Change  Column Row Layer    Maximum-Flux-Residual          L2-NORM 
          0                 1           2             4    7     1       0.3079202517E-01       4    7    1         0.1619407265E+01      0.3537496141E+01
          0                 2           2             4    7     1      -0.2995244889E-02       4    7    1        -0.1619421136E+00      0.3537497667E+00
          0                 3           2             4    7     1       0.2039648721E-03       4    7    1         0.1133593972E-01      0.2476242037E-01
          0                 4           1             4    7     1      -0.8115953690E-05       4    7    1        -0.4636406265E-03      0.1013062950E-02

    ------------------------------------------------
       NWT REQUIRED            4 OUTER ITERATIONS 
       AND A TOTAL OF          7 INNER ITERATIONS.
    ------------------------------------------------

 NO OUTPUT CONTROL FOR STRESS PERIOD   37   TIME STEP   10
 
 SOLVING FOR HEAD 
                                                   Max.-Head-Change                         Max.-Flux-Residual
  Residual-Control   Outer-Iter.   Inner-Iter.     Column Row Layer    Maximum-Head-Change  Column Row Layer    Maximum-Flux-Residual          L2-NORM 
          0                 1           2             4    7     1       0.3042264367E-01       4    7    1         0.1599883924E+01      0.3503423097E+01
          0                 2           2             4    7     1      -0.2959313634E-02       4    7    1        -0.1599897450E+00      0.3503424386E+00
          0                 3           2             4    7     1       0.2015180925E-03       4    7    1         0.1119927421E-01      0.2452391384E-01
          0                 4           1             4    7     1      -0.8018594538E-05       4    7    1        -0.4580510151E-03      0.1003030250E-02

    ------------------------------------------------
       NWT REQUIRED            4 OUTER ITERATIONS 
       AND A TOTAL OF          7 INNER ITERATIONS.
    ------------------------------------------------

 NO OUTPUT CONTROL FOR STRESS PERIOD   37   TIME STEP   11
 
 SOLVING FOR HEAD 
                                                   Max.-Head-Change                         Max.-Flux-Residual
  Residual-Control   Outer-Iter.   Inner-Iter.     Column Row Layer    Maximum-Head-Change  Column Row Layer    Maximum-Flux-Residual          L2-NORM 
          0                 1           2             4    7     1       0.3005972128E-01       4    7    1         0.1580702825E+01      0.3469915768E+01
          0                 2           2             4    7     1      -0.2924010668E-02       4    7    1        -0.1580716017E+00      0.3469750818E+00
          0                 3           2             4    7     1       0.1991140958E-03       4    7    1         0.1106500442E-01      0.2428820728E-01
          0                 4           1             4    7     1      -0.7922936972E-05       4    7    1        -0.4525593629E-03      0.9934140778E-03

    ------------------------------------------------
       NWT REQUIRED            4 OUTER ITERATIONS 
       AND A TOTAL OF          7 INNER ITERATIONS.
    ------------------------------------------------

 NO OUTPUT CONTROL FOR STRESS PERIOD   37   TIME STEP   12
 
 SOLVING FOR HEAD 
                                                   Max.-Head-Change                         Max.-Flux-Residual
  Residual-Control   Outer-Iter.   Inner-Iter.     Column Row Layer    Maximum-Head-Change  Column Row Layer    Maximum-Flux-Residual          L2-NORM 
          0                 1           2             4    7     1       0.2970271744E-01       4    7    1         0.1561834741E+01      0.3436973329E+01
          0                 2           2             4    7     1      -0.2889283470E-02       4    7    1        -0.1561847606E+00      0.3436973950E+00
          0                 3           2             4    7     1       0.1967493073E-03       4    7    1         0.1093292581E-01      0.2405872856E-01
          0                 4           1             4    7     1      -0.7828839846E-05       4    7    1        -0.4471573429E-03      0.9840036924E-03

    ------------------------------------------------
       NWT REQUIRED            4 OUTER ITERATIONS 
       AND A TOTAL OF          7 INNER ITERATIONS.
    ------------------------------------------------

 NO OUTPUT CONTROL FOR STRESS PERIOD   37   TIME STEP   13
 
 SOLVING FOR HEAD 
                                                   Max.-Head-Change                         Max.-Flux-Residual
  Residual-Control   Outer-Iter.   Inner-Iter.     Column Row Layer    Maximum-Head-Change  Column Row Layer    Maximum-Flux-Residual          L2-NORM 
          0                 1           2             4    7     1       0.2935191949E-01       4    7    1         0.1543295400E+01      0.3404574192E+01
          0                 2           2             4    7     1      -0.2855159927E-02       4    7    1        -0.1543307948E+00      0.3404574660E+00
          0                 3           2             4    7     1       0.1944256254E-03       4    7    1         0.1080314845E-01      0.2383194614E-01
          0                 4           1             4    7     1      -0.7736378337E-05       4    7    1        -0.4418494457E-03      0.9747247238E-03

    ------------------------------------------------
       NWT REQUIRED            4 OUTER ITERATIONS 
       AND A TOTAL OF          7 INNER ITERATIONS.
    ------------------------------------------------

 NO OUTPUT CONTROL FOR STRESS PERIOD   37   TIME STEP   14
 
 SOLVING FOR HEAD 
                                                   Max.-Head-Change                         Max.-Flux-Residual
  Residual-Control   Outer-Iter.   Inner-Iter.     Column Row Layer    Maximum-Head-Change  Column Row Layer    Maximum-Flux-Residual          L2-NORM 
          0                 1           2             4    7     1       0.2900692450E-01       4    7    1         0.1525063234E+01      0.3372699886E+01
          0                 2           2             4    7     1      -0.2821600867E-02       4    7    1        -0.1525075473E+00      0.3372700160E+00
          0                 3           2             4    7     1       0.1921403817E-03       4    7    1         0.1067552134E-01      0.2360883213E-01
          0                 4           1             4    7     1      -0.7645446529E-05       4    7    1        -0.4366294797E-03      0.9656026122E-03

    ------------------------------------------------
       NWT REQUIRED            4 OUTER ITERATIONS 
       AND A TOTAL OF          7 INNER ITERATIONS.
    ------------------------------------------------

 NO OUTPUT CONTROL FOR STRESS PERIOD   37   TIME STEP   15
 
 SOLVING FOR HEAD 
                                                   Max.-Head-Change                         Max.-Flux-Residual
  Residual-Control   Outer-Iter.   Inner-Iter.     Column Row Layer    Maximum-Head-Change  Column Row Layer    Maximum-Flux-Residual          L2-NORM 
          0                 1           2             4    7     1       0.2866774754E-01       4    7    1         0.1507139235E+01      0.3341337582E+01
          0                 2           2             4    7     1      -0.2788607755E-02       4    7    1        -0.1507151174E+00      0.3341337727E+00
          0                 3           2             4    7     1       0.1898936769E-03       4    7    1         0.1055005146E-01      0.2338928976E-01
          0                 4           1             4    7     1      -0.7556047760E-05       4    7    1        -0.4314977318E-03      0.9566133405E-03

    ------------------------------------------------
       NWT REQUIRED            4 OUTER ITERATIONS 
       AND A TOTAL OF          7 INNER ITERATIONS.
    ------------------------------------------------

 NO OUTPUT CONTROL FOR STRESS PERIOD   37   TIME STEP   16
 
 SOLVING FOR HEAD 
                                                   Max.-Head-Change                         Max.-Flux-Residual
  Residual-Control   Outer-Iter.   Inner-Iter.     Column Row Layer    Maximum-Head-Change  Column Row Layer    Maximum-Flux-Residual          L2-NORM 
          0                 1           2             4    7     1       0.2833426930E-01       4    7    1         0.1489516889E+01      0.3310478060E+01
          0                 2           2             4    7     1      -0.2756168985E-02       4    7    1        -0.1489528535E+00      0.3310477903E+00
          0                 3           2             4    7     1       0.1876847217E-03       4    7    1         0.1042669322E-01      0.2317327544E-01
          0                 4           1             4    7     1      -0.7468151751E-05       4    7    1        -0.4264524091E-03      0.9477832891E-03

    ------------------------------------------------
       NWT REQUIRED            4 OUTER ITERATIONS 
       AND A TOTAL OF          7 INNER ITERATIONS.
    ------------------------------------------------

 NO OUTPUT CONTROL FOR STRESS PERIOD   37   TIME STEP   17
 
 SOLVING FOR HEAD 
                                                   Max.-Head-Change                         Max.-Flux-Residual
  Residual-Control   Outer-Iter.   Inner-Iter.     Column Row Layer    Maximum-Head-Change  Column Row Layer    Maximum-Flux-Residual          L2-NORM 
          0                 1           2             4    7     1       0.2800636715E-01       4    7    1         0.1472190010E+01      0.3280112568E+01
          0                 2           2             4    7     1      -0.2724268699E-02       4    7    1        -0.1472201371E+00      0.3279185924E+00
          0                 3           2             4    7     1       0.1855124349E-03       4    7    1         0.1030540331E-01      0.2295422738E-01
          0                 4           1             4    7     1      -0.7381714524E-05       4    7    1        -0.4214916421E-03      0.9388192483E-03

    ------------------------------------------------
       NWT REQUIRED            4 OUTER ITERATIONS 
       AND A TOTAL OF          7 INNER ITERATIONS.
    ------------------------------------------------

 NO OUTPUT CONTROL FOR STRESS PERIOD   37   TIME STEP   18
 
 SOLVING FOR HEAD 
                                                   Max.-Head-Change                         Max.-Flux-Residual
  Residual-Control   Outer-Iter.   Inner-Iter.     Column Row Layer    Maximum-Head-Change  Column Row Layer    Maximum-Flux-Residual          L2-NORM 
          0                 1           2             4    7     1       0.2768394253E-01       4    7    1         0.1455152450E+01      0.3250313657E+01
          0                 2           2             4    7     1      -0.2692909098E-02       4    7    1        -0.1455163535E+00      0.3250313474E+00
          0                 3           2             4    7     1       0.1833769659E-03       4    7    1         0.1018613865E-01      0.2275211679E-01
          0                 4           1             4    7     1      -0.7296742066E-05       4    7    1        -0.4166136980E-03      0.9305646640E-03

    ------------------------------------------------
       NWT REQUIRED            4 OUTER ITERATIONS 
       AND A TOTAL OF          7 INNER ITERATIONS.
    ------------------------------------------------

 NO OUTPUT CONTROL FOR STRESS PERIOD   37   TIME STEP   19
 
 SOLVING FOR HEAD 
                                                   Max.-Head-Change                         Max.-Flux-Residual
  Residual-Control   Outer-Iter.   Inner-Iter.     Column Row Layer    Maximum-Head-Change  Column Row Layer    Maximum-Flux-Residual          L2-NORM 
          0                 1           2             4    7     1       0.2736686698E-01       4    7    1         0.1438398469E+01      0.3220979575E+01
          0                 2           2             4    7     1      -0.2662065897E-02       4    7    1        -0.1438409284E+00      0.3220978828E+00
          0                 3           2             4    7     1       0.1812766622E-03       4    7    1         0.1006885910E-01      0.2254678392E-01
          0                 4           1             4    7     1      -0.7213168754E-05       4    7    1        -0.4118169627E-03      0.9221688452E-03

    ------------------------------------------------
       NWT REQUIRED            4 OUTER ITERATIONS 
       AND A TOTAL OF          7 INNER ITERATIONS.
    ------------------------------------------------

 NO OUTPUT CONTROL FOR STRESS PERIOD   37   TIME STEP   20
 
 SOLVING FOR HEAD 
                                                   Max.-Head-Change                         Max.-Flux-Residual
  Residual-Control   Outer-Iter.   Inner-Iter.     Column Row Layer    Maximum-Head-Change  Column Row Layer    Maximum-Flux-Residual          L2-NORM 
          0                 1           2             4    7     1       0.2705517228E-01       4    7    1         0.1421929334E+01      0.3192119099E+01
          0                 2           2             4    7     1      -0.2631746115E-02       4    7    1        -0.1421939887E+00      0.3192118260E+00
          0                 3           2             4    7     1       0.1792120013E-03       4    7    1         0.9953573529E-02      0.2234476140E-01
          0                 4           1             4    7     1      -0.7131014043E-05       4    7    1        -0.4071017663E-03      0.9139038999E-03

    ------------------------------------------------
       NWT REQUIRED            4 OUTER ITERATIONS 
       AND A TOTAL OF          7 INNER ITERATIONS.
    ------------------------------------------------

 NO OUTPUT CONTROL FOR STRESS PERIOD   37   TIME STEP   21
 
 SOLVING FOR HEAD 
                                                   Max.-Head-Change                         Max.-Flux-Residual
  Residual-Control   Outer-Iter.   Inner-Iter.     Column Row Layer    Maximum-Head-Change  Column Row Layer    Maximum-Flux-Residual          L2-NORM 
          0                 1           2             4    7     1       0.2674860871E-01       4    7    1         0.1405731888E+01      0.3163703250E+01
          0                 2           2             4    7     1      -0.2601925469E-02       4    7    1        -0.1405742186E+00      0.3163702258E+00
          0                 3           2             4    7     1       0.1771813287E-03       4    7    1         0.9840189799E-02      0.2214586072E-01
          0                 4           1             4    7     1      -0.7050211852E-05       4    7    1        -0.4024643702E-03      0.9057718126E-03

    ------------------------------------------------
       NWT REQUIRED            4 OUTER ITERATIONS 
       AND A TOTAL OF          7 INNER ITERATIONS.
    ------------------------------------------------

 NO OUTPUT CONTROL FOR STRESS PERIOD   37   TIME STEP   22
 
 SOLVING FOR HEAD 
                                                   Max.-Head-Change                         Max.-Flux-Residual
  Residual-Control   Outer-Iter.   Inner-Iter.     Column Row Layer    Maximum-Head-Change  Column Row Layer    Maximum-Flux-Residual          L2-NORM 
          0                 1           2             4    7     1       0.2644707223E-01       4    7    1         0.1389800481E+01      0.3135718969E+01
          0                 2           2             4    7     1      -0.2572593883E-02       4    7    1        -0.1389810531E+00      0.3135718180E+00
          0                 3           2             4    7     1       0.1751839603E-03       4    7    1         0.9728668412E-02      0.2194994630E-01
          0                 4           1             4    7     1      -0.6970734664E-05       4    7    1        -0.3979031385E-03      0.8977456911E-03

    ------------------------------------------------
       NWT REQUIRED            4 OUTER ITERATIONS 
       AND A TOTAL OF          7 INNER ITERATIONS.
    ------------------------------------------------

 NO OUTPUT CONTROL FOR STRESS PERIOD   37   TIME STEP   23
 
 SOLVING FOR HEAD 
                                                   Max.-Head-Change                         Max.-Flux-Residual
  Residual-Control   Outer-Iter.   Inner-Iter.     Column Row Layer    Maximum-Head-Change  Column Row Layer    Maximum-Flux-Residual          L2-NORM 
          0                 1           2             4    7     1       0.2615058733E-01       4    7    1         0.1374137015E+01      0.3108167498E+01
          0                 2           2             4    7     1      -0.2543753630E-02       4    7    1        -0.1374146823E+00      0.3108166300E+00
          0                 3           2             4    7     1       0.1732200495E-03       4    7    1         0.9619022640E-02      0.2175706534E-01
          0                 4           1             4    7     1      -0.6892588582E-05       4    7    1        -0.3934186184E-03      0.8898525222E-03

    ------------------------------------------------
       NWT REQUIRED            4 OUTER ITERATIONS 
       AND A TOTAL OF          7 INNER ITERATIONS.
    ------------------------------------------------

 NO OUTPUT CONTROL FOR STRESS PERIOD   37   TIME STEP   24
 
 SOLVING FOR HEAD 
                                                   Max.-Head-Change                         Max.-Flux-Residual
  Residual-Control   Outer-Iter.   Inner-Iter.     Column Row Layer    Maximum-Head-Change  Column Row Layer    Maximum-Flux-Residual          L2-NORM 
          0                 1           2             4    7     1       0.2585904947E-01       4    7    1         0.1358735466E+01      0.3081040816E+01
          0                 2           2             4    7     1      -0.2515394596E-02       4    7    1        -0.1358745040E+00      0.3081039814E+00
          0                 3           2             4    7     1       0.1712889077E-03       4    7    1         0.9511210313E-02      0.2156719232E-01
          0                 4           1             4    7     1      -0.6815746780E-05       4    7    1        -0.3890090989E-03      0.8820941011E-03

    ------------------------------------------------
       NWT REQUIRED            4 OUTER ITERATIONS 
       AND A TOTAL OF          7 INNER ITERATIONS.
    ------------------------------------------------

 NO OUTPUT CONTROL FOR STRESS PERIOD   37   TIME STEP   25
 
 SOLVING FOR HEAD 
                                                   Max.-Head-Change                         Max.-Flux-Residual
  Residual-Control   Outer-Iter.   Inner-Iter.     Column Row Layer    Maximum-Head-Change  Column Row Layer    Maximum-Flux-Residual          L2-NORM 
          0                 1           2             4    7     1       0.2557221752E-01       4    7    1         0.1343583113E+01      0.3054322676E+01
          0                 2           2             4    7     1      -0.2487493331E-02       4    7    1        -0.1343592458E+00      0.3054321271E+00
          0                 3           2             4    7     1       0.1693889382E-03       4    7    1         0.9405142419E-02      0.2138017869E-01
          0                 4           1             4    7     1      -0.6740145133E-05       4    7    1        -0.3846709096E-03      0.8744430557E-03

    ------------------------------------------------
       NWT REQUIRED            4 OUTER ITERATIONS 
       AND A TOTAL OF          7 INNER ITERATIONS.
    ------------------------------------------------

 NO OUTPUT CONTROL FOR STRESS PERIOD   37   TIME STEP   26
 
 SOLVING FOR HEAD 
                                                   Max.-Head-Change                         Max.-Flux-Residual
  Residual-Control   Outer-Iter.   Inner-Iter.     Column Row Layer    Maximum-Head-Change  Column Row Layer    Maximum-Flux-Residual          L2-NORM 
          0                 1           2             4    7     1       0.2529012633E-01       4    7    1         0.1328682052E+01      0.3028001332E+01
          0                 2           2             4    7     1      -0.2460053220E-02       4    7    1        -0.1328691174E+00      0.3027999729E+00
          0                 3           2             4    7     1       0.1675203715E-03       4    7    1         0.9300833596E-02      0.2119593120E-01
          0                 4           1             4    7     1      -0.6665793081E-05       4    7    1        -0.3804046557E-03      0.8669258197E-03

    ------------------------------------------------
       NWT REQUIRED            4 OUTER ITERATIONS 
       AND A TOTAL OF          7 INNER ITERATIONS.
    ------------------------------------------------

 NO OUTPUT CONTROL FOR STRESS PERIOD   37   TIME STEP   27
 
 SOLVING FOR HEAD 
                                                   Max.-Head-Change                         Max.-Flux-Residual
  Residual-Control   Outer-Iter.   Inner-Iter.     Column Row Layer    Maximum-Head-Change  Column Row Layer    Maximum-Flux-Residual          L2-NORM 
          0                 1           2             4    7     1       0.2501254083E-01       4    7    1         0.1314019490E+01      0.3002081976E+01
          0                 2           2             4    7     1      -0.2433051399E-02       4    7    1        -0.1314028396E+00      0.3002079914E+00
          0                 3           2             4    7     1       0.1656816513E-03       4    7    1         0.9198194331E-02      0.2101447544E-01
          0                 4           1             4    7     1      -0.6592628800E-05       4    7    1        -0.3762067183E-03      0.8594937006E-03

    ------------------------------------------------
       NWT REQUIRED            4 OUTER ITERATIONS 
       AND A TOTAL OF          7 INNER ITERATIONS.
    ------------------------------------------------

 NO OUTPUT CONTROL FOR STRESS PERIOD   37   TIME STEP   28
 
 SOLVING FOR HEAD 
                                                   Max.-Head-Change                         Max.-Flux-Residual
  Residual-Control   Outer-Iter.   Inner-Iter.     Column Row Layer    Maximum-Head-Change  Column Row Layer    Maximum-Flux-Residual          L2-NORM 
          0                 1           2             4    7     1       0.2473963255E-01       4    7    1         0.1299605140E+01      0.2976549681E+01
          0                 2           2             4    7     1      -0.2406504554E-02       4    7    1        -0.1299613835E+00      0.2976547523E+00
          0                 3           2             4    7     1       0.1638739124E-03       4    7    1         0.9097292567E-02      0.2083575172E-01
          0                 4           1             4    7     1      -0.6520697075E-05       4    7    1        -0.3720798172E-03      0.8521811092E-03

    ------------------------------------------------
       NWT REQUIRED            4 OUTER ITERATIONS 
       AND A TOTAL OF          7 INNER ITERATIONS.
    ------------------------------------------------

 NO OUTPUT CONTROL FOR STRESS PERIOD   37   TIME STEP   29
 
 SOLVING FOR HEAD 
                                                   Max.-Head-Change                         Max.-Flux-Residual
  Residual-Control   Outer-Iter.   Inner-Iter.     Column Row Layer    Maximum-Head-Change  Column Row Layer    Maximum-Flux-Residual          L2-NORM 
          0                 1           2             4    7     1       0.2447116520E-01       4    7    1         0.1285425996E+01      0.2951393977E+01
          0                 2           2             4    7     1      -0.2380389697E-02       4    7    1        -0.1285434486E+00      0.2951391682E+00
          0                 3           2             4    7     1       0.1620955904E-03       4    7    1         0.8998037257E-02      0.2065966194E-01
          0                 4           1             4    7     1      -0.6449935968E-05       4    7    1        -0.3680202813E-03      0.8449645135E-03

    ------------------------------------------------
       NWT REQUIRED            4 OUTER ITERATIONS 
       AND A TOTAL OF          7 INNER ITERATIONS.
    ------------------------------------------------

 NO OUTPUT CONTROL FOR STRESS PERIOD   37   TIME STEP   30



 STREAM LISTING     PERIOD     37   STEP       30

 LAYER ROW COL. STREAM  RCH.  FLOW INTO     FLOW TO   FLOW OUT OF   OVRLND.     DIRECT     STREAM       STREAM     STREAM     STREAM   STREAMBED  STREAMBED
                SEG.NO.  NO.  STRM. RCH.    AQUIFER    STRM. RCH.    RUNOFF     PRECIP       ET          HEAD       DEPTH      WIDTH   CONDCTNC.   GRADIENT

   1    1    1     1     1    1.9000E+01  2.1427E-01   1.8786E+01  0.000E+00  0.000E+00  0.000E+00  1.09413E+03  1.082E+00  1.166E+01  5.249E-02  1.361E+00
   1    2    2     1     2    1.8786E+01  3.3054E-01   1.8455E+01  0.000E+00  0.000E+00  0.000E+00  1.08914E+03  1.077E+00  1.158E+01  8.107E-02  1.359E+00
   1    3    3     1     3    1.8455E+01  2.8064E-01   1.8175E+01  0.000E+00  0.000E+00  0.000E+00  1.08349E+03  1.072E+00  1.149E+01  6.892E-02  1.357E+00
   1    3    4     1     4    1.8175E+01  2.5740E-01   1.7917E+01  0.000E+00  0.000E+00  0.000E+00  1.07848E+03  1.068E+00  1.140E+01  6.328E-02  1.356E+00
   1    4    5     2     1    1.5917E+01  3.0542E-01   1.5612E+01  0.000E+00  0.000E+00  0.000E+00  1.07285E+03  9.157E-01  1.200E+01  7.800E-02  1.305E+00
   1    5    6     2     2    1.5612E+01  2.3438E-01   1.5377E+01  0.000E+00  0.000E+00  0.000E+00  1.06742E+03  9.063E-01  1.200E+01  6.000E-02  1.302E+00
   1    6    6     2     3    1.5377E+01  2.3388E-01   1.5143E+01  0.000E+00  0.000E+00  0.000E+00  1.06269E+03  8.980E-01  1.200E+01  6.000E-02  1.299E+00
   1    7    6     2     4    1.5143E+01  2.3338E-01   1.4910E+01  0.000E+00  0.000E+00  0.000E+00  1.05797E+03  8.897E-01  1.200E+01  6.000E-02  1.297E+00
   1    8    6     2     5    1.4910E+01  2.3289E-01   1.4677E+01  0.000E+00  0.000E+00  0.000E+00  1.05324E+03  8.814E-01  1.200E+01  6.000E-02  1.294E+00
   1    3    5     3     1    2.0000E+00  2.8252E-01   1.7175E+00  0.000E+00  0.000E+00  0.000E+00  1.07555E+03  1.909E+00  9.636E+00  7.227E-02  1.955E+00
   1    3    6     3     2    1.7175E+00  2.4905E-01   1.4684E+00  0.000E+00  0.000E+00  0.000E+00  1.07264E+03  1.727E+00  8.909E+00  6.682E-02  1.864E+00
   1    3    7     3     3    1.4684E+00  1.9718E-01   1.2712E+00  0.000E+00  0.000E+00  0.000E+00  1.06987E+03  1.555E+00  8.218E+00  5.547E-02  1.777E+00
   1    4    8     3     4    1.2712E+00  2.2567E-01   1.0456E+00  0.000E+00  0.000E+00  0.000E+00  1.06682E+03  1.364E+00  7.455E+00  6.709E-02  1.682E+00
   1    5    8     3     5    1.0456E+00  1.5790E-01   8.8768E-01  0.000E+00  0.000E+00  0.000E+00  1.06362E+03  1.164E+00  6.655E+00  4.991E-02  1.582E+00
   1    6    8     3     6    8.8768E-01  5.5980E-02   8.3170E-01  0.000E+00  0.000E+00  0.000E+00  1.06158E+03  1.036E+00  6.145E+00  1.844E-02  1.518E+00
   1    5   10     4     1    1.0000E+01  9.0919E-02   9.9091E+00  0.000E+00  0.000E+00  0.000E+00  1.07836E+03  6.368E-01  1.000E+01  2.500E-02  1.212E+00
   1    5    9     4     2    9.9091E+00  1.8158E-01   9.7275E+00  0.000E+00  0.000E+00  0.000E+00  1.07154E+03  6.315E-01  1.000E+01  5.000E-02  1.211E+00
   1    6    8     4     3    9.7275E+00  1.2689E-01   9.6006E+00  0.000E+00  0.000E+00  0.000E+00  1.06381E+03  6.256E-01  1.000E+01  3.500E-02  1.209E+00
   1    6    8     5     1    1.0432E+01  2.2686E-01   1.0205E+01  0.000E+00  0.000E+00  0.000E+00  1.05868E+03  6.790E-01  1.542E+01  6.166E-02  1.226E+00
   1    7    7     5     2    1.0205E+01  2.7894E-01   9.9265E+00  0.000E+00  0.000E+00  0.000E+00  1.05417E+03  6.732E-01  1.519E+01  7.594E-02  1.224E+00
   1    8    7     5     3    9.9265E+00  1.9221E-01   9.7343E+00  0.000E+00  0.000E+00  0.000E+00  1.04992E+03  6.676E-01  1.497E+01  5.241E-02  1.223E+00
   1    8    6     5     4    9.7343E+00  1.3577E-01   9.5985E+00  0.000E+00  0.000E+00  0.000E+00  1.04691E+03  6.637E-01  1.482E+01  3.706E-02  1.221E+00
   1    9    6     6     1    2.4276E+01  2.5176E-01   2.4024E+01  0.000E+00  0.000E+00  0.000E+00  1.04392E+03  1.196E+00  1.200E+01  6.000E-02  1.399E+00
   1   10    7     6     2    2.4024E+01  2.5131E-01   2.3773E+01  0.000E+00  0.000E+00  0.000E+00  1.03937E+03  1.188E+00  1.200E+01  6.000E-02  1.396E+00
   1   11    7     6     3    2.3773E+01  2.5086E-01   2.3522E+01  0.000E+00  0.000E+00  0.000E+00  1.03482E+03  1.181E+00  1.200E+01  6.000E-02  1.394E+00
   1   12    7     6     4    2.3522E+01  2.5041E-01   2.3271E+01  0.000E+00  0.000E+00  0.000E+00  1.03026E+03  1.173E+00  1.200E+01  6.000E-02  1.391E+00
   1   13    7     6     5    2.3271E+01  8.3224E-03   2.3263E+01  0.000E+00  0.000E+00  0.000E+00  1.02708E+03  1.170E+00  1.200E+01  2.400E-02  1.156E-01
   1   14    9     7     1    1.5000E+02  1.3591E+00   1.4864E+02  0.000E+00  0.000E+00  0.000E+00  1.03987E+03  2.288E+00  5.529E+01  5.593E-01  8.100E-01
   1   13    8     7     2    1.4864E+02  1.9331E+00   1.4671E+02  0.000E+00  0.000E+00  0.000E+00  1.03478E+03  2.279E+00  5.526E+01  6.148E-01  1.048E+00
   1   13    7     7     3    1.4671E+02  1.6511E+00   1.4506E+02  0.000E+00  0.000E+00  0.000E+00  1.02969E+03  2.269E+00  5.521E+01  5.584E-01  9.856E-01
   1   13    6     8     1    1.6832E+02  1.0932E+00   1.6723E+02  0.000E+00  0.000E+00  0.000E+00  1.02481E+03  2.938E+00  4.260E+01  4.341E-01  8.395E-01
   1   13    5     8     2    1.6723E+02  3.4001E-01   1.6689E+02  0.000E+00  0.000E+00  0.000E+00  1.01856E+03  2.933E+00  4.253E+01  4.334E-01  2.615E-01
   1   13    4     8     3    1.6689E+02 -1.8722E+00   1.6876E+02  0.000E+00  0.000E+00  0.000E+00  1.01231E+03  2.938E+00  4.260E+01  4.341E+00 -1.438E-01
   1   13    3     8     4    1.6876E+02 -3.3828E+00   1.7214E+02  0.000E+00  0.000E+00  0.000E+00  1.00608E+03  2.955E+00  4.285E+01  4.367E+00 -2.582E-01
   1   13    2     8     5    1.7214E+02 -2.5141E+00   1.7466E+02  0.000E+00  0.000E+00  0.000E+00  9.99849E+02  2.974E+00  4.313E+01  4.395E+00 -1.907E-01
   1   13    1     8     6    1.7466E+02 -1.9665E+00   1.7662E+02  0.000E+00  0.000E+00  0.000E+00  9.94864E+02  2.989E+00  4.333E+01  2.650E+00 -2.474E-01





UNSATURATED ZONE PACKAGE VOLUMETRIC BUDGET FOR  TIME STEP    30 STRESS PERIOD   37
  ------------------------------------------------------------------------------



     CUMULATIVE VOLUMES      L**3       RATES FOR THIS TIME STEP      L**3/T
     ------------------                 ------------------------

           IN:                                      IN:
           ---                                      ---
        INFILTRATION =  1612532543.7844          INFILTRATION =           4.4075

          OUT:                                     OUT:
          ----                                     ----
              UZF ET =  1499763123.8257                UZF ET =           0.7250
        UZF RECHARGE =      883910.3275          UZF RECHARGE =       0.0000E+00

            IN - OUT =   111885509.6312              IN - OUT =           3.6825

          STORAGE:                                 STORAGE:
          --------                                 --------
      STORAGE CHANGE =   111887142.1783        STORAGE CHANGE =           3.6825

 PERCENT DISCREPANCY IS DIFFERENCE BETWEEN IN-OUT MINUS CHANGE IN STORAGE
 DIVIDED BY THE AVERAGE OF IN AND OUT TIMES 100

 PERCENT DISCREPANCY =          -0.00     PERCENT DISCREPANCY =           0.00






1
  VOLUMETRIC BUDGET FOR ENTIRE MODEL AT END OF TIME STEP   30, STRESS PERIOD  37
  ------------------------------------------------------------------------------

     CUMULATIVE VOLUMES      L**3       RATES FOR THIS TIME STEP      L**3/T
     ------------------                 ------------------------

           IN:                                      IN:
           ---                                      ---
               AG WELLS  =  1195158016.0000                 AG WELLS  =           0.0000
      DIVERSION SEGMENTS =           0.0000        DIVERSION SEGMENTS =           0.0000
           GW IRRIGATION =           0.0000             GW IRRIGATION =           0.0000
           SW IRRIGATION =           0.0000             SW IRRIGATION =           0.0000
        SYSTEM LOSSES GW =           0.0000          SYSTEM LOSSES GW =           0.0000
        SYSTEM LOSSES SW =           0.0000          SYSTEM LOSSES SW =           0.0000

                TOTAL IN =  1195158016.0000                  TOTAL IN =           0.0000

          OUT:                                     OUT:
          ----                                     ----
               AG WELLS  =           0.0000                 AG WELLS  =           0.0000
      DIVERSION SEGMENTS =           0.0000        DIVERSION SEGMENTS =           0.0000
           GW IRRIGATION =  1195158016.0000             GW IRRIGATION =           0.0000
           SW IRRIGATION =           0.0000             SW IRRIGATION =           0.0000
        SYSTEM LOSSES GW =           0.0000          SYSTEM LOSSES GW =           0.0000
        SYSTEM LOSSES SW =           0.0000          SYSTEM LOSSES SW =           0.0000

               TOTAL OUT =  1195158016.0000                 TOTAL OUT =           0.0000

                IN - OUT =           0.0000                  IN - OUT =           0.0000

     PERCENT DISCREPANCY =           0.00         PERCENT DISCREPANCY =           0.00



1
  VOLUMETRIC BUDGET FOR ENTIRE MODEL AT END OF TIME STEP   30, STRESS PERIOD  37
  ------------------------------------------------------------------------------

     CUMULATIVE VOLUMES      L**3       RATES FOR THIS TIME STEP      L**3/T
     ------------------                 ------------------------

           IN:                                      IN:
           ---                                      ---
             STORAGE     =  1638519424.0000               STORAGE     =           7.4902
       CONSTANT HEAD     =           0.0000         CONSTANT HEAD     =           0.0000
     HEAD DEP BOUNDS     =    27087526.0000       HEAD DEP BOUNDS     =           0.2873
      STREAM LEAKAGE     =  1160296832.0000        STREAM LEAKAGE     =          12.1134
        UZF RECHARGE     =      883910.4375          UZF RECHARGE     =           0.0000
               GW ET     =           0.0000                 GW ET     =           0.0000
     SURFACE LEAKAGE     =           0.0000       SURFACE LEAKAGE     =           0.0000
           AG WELLS      =           0.0000             AG WELLS      =           0.0000

                TOTAL IN =  2826787584.0000                  TOTAL IN =          19.8909

          OUT:                                     OUT:
          ----                                     ----
             STORAGE     =   613531264.0000               STORAGE     =           9.8664
       CONSTANT HEAD     =           0.0000         CONSTANT HEAD     =           0.0000
     HEAD DEP BOUNDS     =    27713682.0000       HEAD DEP BOUNDS     =           0.2890
      STREAM LEAKAGE     =   973067328.0000        STREAM LEAKAGE     =           9.7355
        UZF RECHARGE     =           0.0000          UZF RECHARGE     =           0.0000
               GW ET     =    17319432.0000                 GW ET     =           0.0000
     SURFACE LEAKAGE     =           0.0000       SURFACE LEAKAGE     =           0.0000
           AG WELLS      =  1195158016.0000             AG WELLS      =           0.0000

               TOTAL OUT =  2826789632.0000                 TOTAL OUT =          19.8909

                IN - OUT =       -2048.0000                  IN - OUT =       1.3351E-05

     PERCENT DISCREPANCY =          -0.00         PERCENT DISCREPANCY =           0.00






         TIME SUMMARY AT END OF TIME STEP   30 IN STRESS PERIOD   37
                    SECONDS     MINUTES      HOURS       DAYS        YEARS
                    -----------------------------------------------------------
   TIME STEP LENGTH  87667.      1461.1      24.352      1.0147     2.77799E-03
 STRESS PERIOD TIME 2.63000E+06  43833.      730.56      30.440     8.33397E-02
         TOTAL TIME 9.47660E+07 1.57943E+06  26324.      1096.8      3.0030    
1
1
                            STRESS PERIOD NO.   38, LENGTH =   2630000.    
                            -----------------------------------------------

                              NUMBER OF TIME STEPS =    30

                               MULTIPLIER FOR DELT =     1.000

                            INITIAL TIME STEP SIZE =   87666.66    

 REUSING NON-PARAMETER GHB CELLS FROM LAST STRESS PERIOD

      2 GHB CELLS

 REUSING STREAM SEGMENT DATA FROM LAST STRESS PERIOD



            AREAL INFILTRATION RATE
 READING ON UNIT   19 WITH FORMAT: (10F4.0)            

            1           2           3           4           5           6           7           8           9          10
 ........................................................................................................................
   1   1.2000E-09   0.000       0.000       0.000       0.000       0.000       0.000       0.000       0.000       0.000    
   2   2.1000E-09  2.0000E-09  8.0000E-10  8.5000E-09   0.000       0.000       0.000       0.000       0.000       0.000    
   3   5.0000E-10  1.1000E-09  8.8000E-09  5.5000E-09   0.000       0.000       0.000       0.000       0.000       0.000    
   4   8.5000E-09  1.1000E-09  1.1000E-09  1.1000E-09  2.0000E-09   0.000       0.000       0.000       0.000       0.000    
   5   8.5000E-09  1.1000E-09  1.1000E-09  1.1000E-09  1.1000E-09   0.000       0.000       0.000       0.000       0.000    
   6   8.5000E-09  5.2000E-09  2.1000E-09  1.1000E-09  1.5000E-09   0.000       0.000       0.000       0.000       0.000    
   7   8.5000E-09  5.2000E-09  2.1000E-09  1.2000E-09  2.0000E-09   0.000       0.000       0.000       0.000       0.000    
   8   5.0000E-10  5.2000E-09  2.1000E-09  1.2000E-09  5.0000E-09   0.000       0.000       0.000       0.000       0.000    
   9   5.0000E-10  5.2000E-09  2.1000E-09  1.2000E-09  5.0000E-09   0.000       0.000       0.000       0.000       0.000    
  10   5.0000E-10  5.2000E-09  2.1000E-09  1.2000E-09  5.8000E-09   0.000       0.000       0.000       0.000       0.000    
  11   1.0000E-10  1.1000E-09  1.1000E-09  1.2000E-09  5.0000E-09   0.000       0.000       0.000       0.000       0.000    
  12   1.1000E-09  1.1000E-09  1.1000E-09  1.1000E-09  2.0000E-09   0.000       0.000       0.000       0.000       0.000    
  13   1.1000E-09  2.2000E-09  2.2000E-09  2.1000E-09  1.0000E-09   0.000       0.000       0.000       0.000       0.000    
  14   2.0000E-10  5.5000E-09  5.5000E-09  5.2000E-09  1.0000E-09   0.000       0.000       0.000       0.000       0.000    
  15    0.000      8.8000E-09  8.8000E-09   0.000       0.000       0.000       0.000       0.000       0.000       0.000    

                  ET RATE =  5.000000E-10

 USING ET EXTINCTION DEPTH FROM PREVIOUS STRESS PERIOD. CURRENT PERIOD IS:      38

 USING EXTINCTION WATER CONTENT FROM PREVIOUS STRESS PERIOD. CURRENT PERIOD IS:      38

 USING AIR ENTRY PRESSURE FROM PREVIOUS STRESS PERIOD. CURRENT PERIOD IS:      38

 USING ROOT PRESSURE HEAD FROM PREVIOUS STRESS PERIOD. CURRENT PERIOD IS:      38

 USING ROOT ACTIVITY FROM PREVIOUS STRESS PERIOD. CURRENT PERIOD IS:      38

 PROCESSING AG STRESS PERIOD DATA

 READING AG STRESS PERIOD DATA

 READING IRRIGATION WELL

 END PROCESSING AG STRESS PERIOD DATA OPTIONS
 
 SOLVING FOR HEAD 
                                                   Max.-Head-Change                         Max.-Flux-Residual
  Residual-Control   Outer-Iter.   Inner-Iter.     Column Row Layer    Maximum-Head-Change  Column Row Layer    Maximum-Flux-Residual          L2-NORM 
          0                 1           2             4    7     1       0.2420691026E-01       4    7    1         0.1271469804E+01      0.2926610643E+01
          0                 2           2             4    7     1      -0.2354684601E-02       4    7    1        -0.1271478094E+00      0.2926608146E+00
          0                 3           2             4    7     1       0.1603451717E-03       4    7    1         0.8900342677E-02      0.2048618905E-01
          0                 4           1             4    7     1      -0.6380285151E-05       4    7    1        -0.3640245561E-03      0.8378815010E-03

    ------------------------------------------------
       NWT REQUIRED            4 OUTER ITERATIONS 
       AND A TOTAL OF          7 INNER ITERATIONS.
    ------------------------------------------------

 NO OUTPUT CONTROL FOR STRESS PERIOD   38   TIME STEP    1
 
 SOLVING FOR HEAD 
                                                   Max.-Head-Change                         Max.-Flux-Residual
  Residual-Control   Outer-Iter.   Inner-Iter.     Column Row Layer    Maximum-Head-Change  Column Row Layer    Maximum-Flux-Residual          L2-NORM 
          0                 1           2             4    7     1       0.2394704437E-01       4    7    1         0.1257746620E+01      0.2902184835E+01
          0                 2           2             4    7     1      -0.2329406646E-02       4    7    1        -0.1257754716E+00      0.2902343779E+00
          0                 3           2             4    7     1       0.1586238391E-03       4    7    1         0.8804279153E-02      0.2031632611E-01
          0                 4           1             4    7     1      -0.6311791482E-05       4    7    1        -0.3600955465E-03      0.8309386489E-03

    ------------------------------------------------
       NWT REQUIRED            4 OUTER ITERATIONS 
       AND A TOTAL OF          7 INNER ITERATIONS.
    ------------------------------------------------

 NO OUTPUT CONTROL FOR STRESS PERIOD   38   TIME STEP    2
 
 SOLVING FOR HEAD 
                                                   Max.-Head-Change                         Max.-Flux-Residual
  Residual-Control   Outer-Iter.   Inner-Iter.     Column Row Layer    Maximum-Head-Change  Column Row Layer    Maximum-Flux-Residual          L2-NORM 
          0                 1           2             4    7     1       0.2369120233E-01       4    7    1         0.1244236386E+01      0.2878111902E+01
          0                 2           2             4    7     1      -0.2304519714E-02       4    7    1        -0.1244244294E+00      0.2878109073E+00
          0                 3           2             4    7     1       0.1569291340E-03       4    7    1         0.8709706331E-02      0.2014667447E-01
          0                 4           1             4    7     1      -0.6244357678E-05       4    7    1        -0.3562275103E-03      0.8239849071E-03

    ------------------------------------------------
       NWT REQUIRED            4 OUTER ITERATIONS 
       AND A TOTAL OF          7 INNER ITERATIONS.
    ------------------------------------------------

 NO OUTPUT CONTROL FOR STRESS PERIOD   38   TIME STEP    3
 
 SOLVING FOR HEAD 
                                                   Max.-Head-Change                         Max.-Flux-Residual
  Residual-Control   Outer-Iter.   Inner-Iter.     Column Row Layer    Maximum-Head-Change  Column Row Layer    Maximum-Flux-Residual          L2-NORM 
          0                 1           2             4    7     1       0.2343957060E-01       4    7    1         0.1230949407E+01      0.2854347558E+01
          0                 2           2             4    7     1      -0.2280042537E-02       4    7    1        -0.1230957130E+00      0.2854344591E+00
          0                 3           2             4    7     1       0.1552623318E-03       4    7    1         0.8616696320E-02      0.1998033718E-01
          0                 4           1             4    7     1      -0.6178034049E-05       4    7    1        -0.3524234071E-03      0.8171945472E-03

    ------------------------------------------------
       NWT REQUIRED            4 OUTER ITERATIONS 
       AND A TOTAL OF          7 INNER ITERATIONS.
    ------------------------------------------------

 NO OUTPUT CONTROL FOR STRESS PERIOD   38   TIME STEP    4
 
 SOLVING FOR HEAD 
                                                   Max.-Head-Change                         Max.-Flux-Residual
  Residual-Control   Outer-Iter.   Inner-Iter.     Column Row Layer    Maximum-Head-Change  Column Row Layer    Maximum-Flux-Residual          L2-NORM 
          0                 1           2             4    7     1       0.2319192078E-01       4    7    1         0.1217873411E+01      0.2830931598E+01
          0                 2           2             4    7     1      -0.2255952697E-02       4    7    1        -0.1217880956E+00      0.2830928510E+00
          0                 3           2             4    7     1       0.1536219057E-03       4    7    1         0.8525163234E-02      0.1981642396E-01
          0                 4           1             4    7     1      -0.6112760038E-05       4    7    1        -0.3486797002E-03      0.8104835751E-03

    ------------------------------------------------
       NWT REQUIRED            4 OUTER ITERATIONS 
       AND A TOTAL OF          7 INNER ITERATIONS.
    ------------------------------------------------

 NO OUTPUT CONTROL FOR STRESS PERIOD   38   TIME STEP    5
 
 SOLVING FOR HEAD 
                                                   Max.-Head-Change                         Max.-Flux-Residual
  Residual-Control   Outer-Iter.   Inner-Iter.     Column Row Layer    Maximum-Head-Change  Column Row Layer    Maximum-Flux-Residual          L2-NORM 
          0                 1           2             4    7     1       0.2294829747E-01       4    7    1         0.1205011174E+01      0.2807850298E+01
          0                 2           2             4    7     1      -0.2232254534E-02       4    7    1        -0.1205018545E+00      0.2807846903E+00
          0                 3           2             4    7     1       0.1520081512E-03       4    7    1         0.8435126478E-02      0.1965484540E-01
          0                 4           1             4    7     1      -0.6048547389E-05       4    7    1        -0.3449971969E-03      0.8038770141E-03

    ------------------------------------------------
       NWT REQUIRED            4 OUTER ITERATIONS 
       AND A TOTAL OF          7 INNER ITERATIONS.
    ------------------------------------------------

 NO OUTPUT CONTROL FOR STRESS PERIOD   38   TIME STEP    6
 
 SOLVING FOR HEAD 
                                                   Max.-Head-Change                         Max.-Flux-Residual
  Residual-Control   Outer-Iter.   Inner-Iter.     Column Row Layer    Maximum-Head-Change  Column Row Layer    Maximum-Flux-Residual          L2-NORM 
          0                 1           2             4    7     1       0.2270834690E-01       4    7    1         0.1192343097E+01      0.2785098360E+01
          0                 2           2             4    7     1      -0.2208913636E-02       4    7    1        -0.1192350299E+00      0.2785094731E+00
          0                 3           2             4    7     1       0.1504187249E-03       4    7    1         0.8346448883E-02      0.1949558145E-01
          0                 4           1             4    7     1      -0.5985302272E-05       4    7    1        -0.3413702584E-03      0.7973673599E-03

    ------------------------------------------------
       NWT REQUIRED            4 OUTER ITERATIONS 
       AND A TOTAL OF          7 INNER ITERATIONS.
    ------------------------------------------------

 NO OUTPUT CONTROL FOR STRESS PERIOD   38   TIME STEP    7
 
 SOLVING FOR HEAD 
                                                   Max.-Head-Change                         Max.-Flux-Residual
  Residual-Control   Outer-Iter.   Inner-Iter.     Column Row Layer    Maximum-Head-Change  Column Row Layer    Maximum-Flux-Residual          L2-NORM 
          0                 1           2             4    7     1       0.2247239461E-01       4    7    1         0.1179887356E+01      0.2762676307E+01
          0                 2           2             4    7     1      -0.2185961668E-02       4    7    1        -0.1179894393E+00      0.2762672617E+00
          0                 3           2             4    7     1       0.1488557834E-03       4    7    1         0.8259257663E-02      0.1933863297E-01
          0                 4           1             4    7     1      -0.5923111033E-05       4    7    1        -0.3378041315E-03      0.7909512749E-03

    ------------------------------------------------
       NWT REQUIRED            4 OUTER ITERATIONS 
       AND A TOTAL OF          7 INNER ITERATIONS.
    ------------------------------------------------

 NO OUTPUT CONTROL FOR STRESS PERIOD   38   TIME STEP    8
 
 SOLVING FOR HEAD 
                                                   Max.-Head-Change                         Max.-Flux-Residual
  Residual-Control   Outer-Iter.   Inner-Iter.     Column Row Layer    Maximum-Head-Change  Column Row Layer    Maximum-Flux-Residual          L2-NORM 
          0                 1           2             4    7     1       0.2223994632E-01       4    7    1         0.1167617007E+01      0.2740568521E+01
          0                 2           2             4    7     1      -0.2163350550E-02       4    7    1        -0.1167623883E+00      0.2740564620E+00
          0                 3           2             4    7     1       0.1473160523E-03       4    7    1         0.8173364199E-02      0.1918388292E-01
          0                 4           1             4    7     1      -0.5861843923E-05       4    7    1        -0.3342910884E-03      0.7846326098E-03

    ------------------------------------------------
       NWT REQUIRED            4 OUTER ITERATIONS 
       AND A TOTAL OF          7 INNER ITERATIONS.
    ------------------------------------------------

 NO OUTPUT CONTROL FOR STRESS PERIOD   38   TIME STEP    9
 
 SOLVING FOR HEAD 
                                                   Max.-Head-Change                         Max.-Flux-Residual
  Residual-Control   Outer-Iter.   Inner-Iter.     Column Row Layer    Maximum-Head-Change  Column Row Layer    Maximum-Flux-Residual          L2-NORM 
          0                 1           2             4    7     1       0.2201133339E-01       4    7    1         0.1155550247E+01      0.2718776165E+01
          0                 2           2             4    7     1      -0.2141112514E-02       4    7    1        -0.1155556967E+00      0.2718772166E+00
          0                 3           2             4    7     1       0.1458017270E-03       4    7    1         0.8088895906E-02      0.1903132015E-01
          0                 4           1             4    7     1      -0.5801587634E-05       4    7    1        -0.3308363380E-03      0.7783821403E-03

    ------------------------------------------------
       NWT REQUIRED            4 OUTER ITERATIONS 
       AND A TOTAL OF          7 INNER ITERATIONS.
    ------------------------------------------------

 NO OUTPUT CONTROL FOR STRESS PERIOD   38   TIME STEP   10
 
 SOLVING FOR HEAD 
                                                   Max.-Head-Change                         Max.-Flux-Residual
  Residual-Control   Outer-Iter.   Inner-Iter.     Column Row Layer    Maximum-Head-Change  Column Row Layer    Maximum-Flux-Residual          L2-NORM 
          0                 1           2             4    7     1       0.2178620138E-01       4    7    1         0.1143667734E+01      0.2697288055E+01
          0                 2           2             4    7     1      -0.2119213083E-02       4    7    1        -0.1143674302E+00      0.2697283828E+00
          0                 3           2             4    7     1       0.1443104591E-03       4    7    1         0.8005717355E-02      0.1888090964E-01
          0                 4           1             4    7     1      -0.5742248911E-05       4    7    1        -0.3274343358E-03      0.7722302737E-03

    ------------------------------------------------
       NWT REQUIRED            4 OUTER ITERATIONS 
       AND A TOTAL OF          7 INNER ITERATIONS.
    ------------------------------------------------

 NO OUTPUT CONTROL FOR STRESS PERIOD   38   TIME STEP   11
 
 SOLVING FOR HEAD 
                                                   Max.-Head-Change                         Max.-Flux-Residual
  Residual-Control   Outer-Iter.   Inner-Iter.     Column Row Layer    Maximum-Head-Change  Column Row Layer    Maximum-Flux-Residual          L2-NORM 
          0                 1           2             4    7     1       0.2156447646E-01       4    7    1         0.1131965701E+01      0.2676101169E+01
          0                 2           2             4    7     1      -0.2097645074E-02       4    7    1        -0.1131972120E+00      0.2676096832E+00
          0                 3           2             4    7     1       0.1428417596E-03       4    7    1         0.7923802179E-02      0.1873259283E-01
          0                 4           1             4    7     1      -0.5683807954E-05       4    7    1        -0.3240839937E-03      0.7661642639E-03

    ------------------------------------------------
       NWT REQUIRED            4 OUTER ITERATIONS 
       AND A TOTAL OF          7 INNER ITERATIONS.
    ------------------------------------------------

 NO OUTPUT CONTROL FOR STRESS PERIOD   38   TIME STEP   12
 
 SOLVING FOR HEAD 
                                                   Max.-Head-Change                         Max.-Flux-Residual
  Residual-Control   Outer-Iter.   Inner-Iter.     Column Row Layer    Maximum-Head-Change  Column Row Layer    Maximum-Flux-Residual          L2-NORM 
          0                 1           2             4    7     1       0.2134622148E-01       4    7    1         0.1120447624E+01      0.2655208540E+01
          0                 2           2             4    7     1      -0.2076414602E-02       4    7    1        -0.1120453899E+00      0.2655204006E+00
          0                 3           2             4    7     1       0.1413960451E-03       4    7    1         0.7843174739E-02      0.1858635071E-01
          0                 4           1             4    7     1      -0.5626281225E-05       4    7    1        -0.3207863142E-03      0.7601770159E-03

    ------------------------------------------------
       NWT REQUIRED            4 OUTER ITERATIONS 
       AND A TOTAL OF          7 INNER ITERATIONS.
    ------------------------------------------------

 NO OUTPUT CONTROL FOR STRESS PERIOD   38   TIME STEP   13
 
 SOLVING FOR HEAD 
                                                   Max.-Head-Change                         Max.-Flux-Residual
  Residual-Control   Outer-Iter.   Inner-Iter.     Column Row Layer    Maximum-Head-Change  Column Row Layer    Maximum-Flux-Residual          L2-NORM 
          0                 1           2             4    7     1       0.2113135831E-01       4    7    1         0.1109109457E+01      0.2634603563E+01
          0                 2           2             4    7     1      -0.2055514067E-02       4    7    1        -0.1109115593E+00      0.2634598886E+00
          0                 3           2             4    7     1       0.1399727986E-03       4    7    1         0.7763806708E-02      0.1844210804E-01
          0                 4           1             4    7     1      -0.5569649037E-05       4    7    1        -0.3175401591E-03      0.7542873894E-03

    ------------------------------------------------
       NWT REQUIRED            4 OUTER ITERATIONS 
       AND A TOTAL OF          7 INNER ITERATIONS.
    ------------------------------------------------

 NO OUTPUT CONTROL FOR STRESS PERIOD   38   TIME STEP   14
 
 SOLVING FOR HEAD 
                                                   Max.-Head-Change                         Max.-Flux-Residual
  Residual-Control   Outer-Iter.   Inner-Iter.     Column Row Layer    Maximum-Head-Change  Column Row Layer    Maximum-Flux-Residual          L2-NORM 
          0                 1           2             4    7     1       0.2091981863E-01       4    7    1         0.1097947151E+01      0.2614284369E+01
          0                 2           2             4    7     1      -0.2034936821E-02       4    7    1        -0.1097953149E+00      0.2614279565E+00
          0                 3           2             4    7     1       0.1385715663E-03       4    7    1         0.7685669685E-02      0.1829987443E-01
          0                 4           1             4    7     1      -0.5513892971E-05       4    7    1        -0.3143443612E-03      0.7484604280E-03

    ------------------------------------------------
       NWT REQUIRED            4 OUTER ITERATIONS 
       AND A TOTAL OF          7 INNER ITERATIONS.
    ------------------------------------------------

 NO OUTPUT CONTROL FOR STRESS PERIOD   38   TIME STEP   15
 
 SOLVING FOR HEAD 
                                                   Max.-Head-Change                         Max.-Flux-Residual
  Residual-Control   Outer-Iter.   Inner-Iter.     Column Row Layer    Maximum-Head-Change  Column Row Layer    Maximum-Flux-Residual          L2-NORM 
          0                 1           2             4    7     1       0.2071139177E-01       4    7    1         0.1086949855E+01      0.2594240928E+01
          0                 2           2             4    7     1      -0.2014704758E-02       4    7    1        -0.1086955720E+00      0.2594799874E+00
          0                 3           2             4    7     1       0.1371938398E-03       4    7    1         0.7608687786E-02      0.1816351829E-01
          0                 4           1             4    7     1      -0.5459071855E-05       4    7    1        -0.3111957933E-03      0.7428965975E-03

    ------------------------------------------------
       NWT REQUIRED            4 OUTER ITERATIONS 
       AND A TOTAL OF          7 INNER ITERATIONS.
    ------------------------------------------------

 NO OUTPUT CONTROL FOR STRESS PERIOD   38   TIME STEP   16
 
 SOLVING FOR HEAD 
                                                   Max.-Head-Change                         Max.-Flux-Residual
  Residual-Control   Outer-Iter.   Inner-Iter.     Column Row Layer    Maximum-Head-Change  Column Row Layer    Maximum-Flux-Residual          L2-NORM 
          0                 1           2             4    7     1       0.2050612669E-01       4    7    1         0.1076126307E+01      0.2574430066E+01
          0                 2           2             4    7     1      -0.1994695504E-02       4    7    1        -0.1076132046E+00      0.2574425223E+00
          0                 3           2             4    7     1       0.1358312858E-03       4    7    1         0.7532922155E-02      0.1802089622E-01
          0                 4           1             4    7     1      -0.5404854584E-05       4    7    1        -0.3080969764E-03      0.7370458973E-03

    ------------------------------------------------
       NWT REQUIRED            4 OUTER ITERATIONS 
       AND A TOTAL OF          7 INNER ITERATIONS.
    ------------------------------------------------

 NO OUTPUT CONTROL FOR STRESS PERIOD   38   TIME STEP   17
 
 SOLVING FOR HEAD 
                                                   Max.-Head-Change                         Max.-Flux-Residual
  Residual-Control   Outer-Iter.   Inner-Iter.     Column Row Layer    Maximum-Head-Change  Column Row Layer    Maximum-Flux-Residual          L2-NORM 
          0                 1           2             4    7     1       0.2030382007E-01       4    7    1         0.1065456595E+01      0.2554852985E+01
          0                 2           2             4    7     1      -0.1975016400E-02       4    7    1        -0.1065462210E+00      0.2554847982E+00
          0                 3           2             4    7     1       0.1344912130E-03       4    7    1         0.7458233370E-02      0.1788385695E-01
          0                 4           1             4    7     1      -0.5351531624E-05       4    7    1        -0.3050421872E-03      0.7314582286E-03

    ------------------------------------------------
       NWT REQUIRED            4 OUTER ITERATIONS 
       AND A TOTAL OF          7 INNER ITERATIONS.
    ------------------------------------------------

 NO OUTPUT CONTROL FOR STRESS PERIOD   38   TIME STEP   18
 
 SOLVING FOR HEAD 
                                                   Max.-Head-Change                         Max.-Flux-Residual
  Residual-Control   Outer-Iter.   Inner-Iter.     Column Row Layer    Maximum-Head-Change  Column Row Layer    Maximum-Flux-Residual          L2-NORM 
          0                 1           2             4    7     1       0.2010464445E-01       4    7    1         0.1054952631E+01      0.2535547909E+01
          0                 2           2             4    7     1      -0.1955641862E-02       4    7    1        -0.1054958124E+00      0.2535542843E+00
          0                 3           2             4    7     1       0.1331718810E-03       4    7    1         0.7384704864E-02      0.1774871660E-01
          0                 4           1             4    7     1      -0.5299034359E-05       4    7    1        -0.3020348788E-03      0.7259098797E-03

    ------------------------------------------------
       NWT REQUIRED            4 OUTER ITERATIONS 
       AND A TOTAL OF          7 INNER ITERATIONS.
    ------------------------------------------------

 NO OUTPUT CONTROL FOR STRESS PERIOD   38   TIME STEP   19
 
 SOLVING FOR HEAD 
                                                   Max.-Head-Change                         Max.-Flux-Residual
  Residual-Control   Outer-Iter.   Inner-Iter.     Column Row Layer    Maximum-Head-Change  Column Row Layer    Maximum-Flux-Residual          L2-NORM 
          0                 1           2             4    7     1       0.1990826840E-01       4    7    1         0.1044596389E+01      0.2516500601E+01
          0                 2           2             4    7     1      -0.1936539651E-02       4    7    1        -0.1044601762E+00      0.2516495419E+00
          0                 3           2             4    7     1       0.1318710925E-03       4    7    1         0.7312210410E-02      0.1761537503E-01
          0                 4           1             4    7     1      -0.5247274372E-05       4    7    1        -0.2990698367E-03      0.7204694756E-03

    ------------------------------------------------
       NWT REQUIRED            4 OUTER ITERATIONS 
       AND A TOTAL OF          7 INNER ITERATIONS.
    ------------------------------------------------

 NO OUTPUT CONTROL FOR STRESS PERIOD   38   TIME STEP   20
 
 SOLVING FOR HEAD 
                                                   Max.-Head-Change                         Max.-Flux-Residual
  Residual-Control   Outer-Iter.   Inner-Iter.     Column Row Layer    Maximum-Head-Change  Column Row Layer    Maximum-Flux-Residual          L2-NORM 
          0                 1           2             4    7     1       0.1971490905E-01       4    7    1         0.1034399915E+01      0.2497712387E+01
          0                 2           2             4    7     1      -0.1917730887E-02       4    7    1        -0.1034405173E+00      0.2497707031E+00
          0                 3           2             4    7     1       0.1305902873E-03       4    7    1         0.7240834362E-02      0.1748387030E-01
          0                 4           1             4    7     1      -0.5196310377E-05       4    7    1        -0.2961505675E-03      0.7150919706E-03

    ------------------------------------------------
       NWT REQUIRED            4 OUTER ITERATIONS 
       AND A TOTAL OF          7 INNER ITERATIONS.
    ------------------------------------------------

 NO OUTPUT CONTROL FOR STRESS PERIOD   38   TIME STEP   21
 
 SOLVING FOR HEAD 
                                                   Max.-Head-Change                         Max.-Flux-Residual
  Residual-Control   Outer-Iter.   Inner-Iter.     Column Row Layer    Maximum-Head-Change  Column Row Layer    Maximum-Flux-Residual          L2-NORM 
          0                 1           2             4    7     1       0.1952423761E-01       4    7    1         0.1024345235E+01      0.2479173488E+01
          0                 2           2             4    7     1      -0.1899183587E-02       4    7    1        -0.1024350380E+00      0.2479168096E+00
          0                 3           2             4    7     1       0.1293272865E-03       4    7    1         0.7170450882E-02      0.1735410641E-01
          0                 4           1             4    7     1      -0.5146054416E-05       4    7    1        -0.2932718803E-03      0.7097626434E-03

    ------------------------------------------------
       NWT REQUIRED            4 OUTER ITERATIONS 
       AND A TOTAL OF          7 INNER ITERATIONS.
    ------------------------------------------------

 NO OUTPUT CONTROL FOR STRESS PERIOD   38   TIME STEP   22
 
 SOLVING FOR HEAD 
                                                   Max.-Head-Change                         Max.-Flux-Residual
  Residual-Control   Outer-Iter.   Inner-Iter.     Column Row Layer    Maximum-Head-Change  Column Row Layer    Maximum-Flux-Residual          L2-NORM 
          0                 1           2             4    7     1       0.1933647329E-01       4    7    1         0.1014444536E+01      0.2460889290E+01
          0                 2           2             4    7     1      -0.1880919074E-02       4    7    1        -0.1014449571E+00      0.2460883768E+00
          0                 3           2             4    7     1       0.1280835427E-03       4    7    1         0.7101145310E-02      0.1722611944E-01
          0                 4           1             4    7     1      -0.5096564514E-05       4    7    1        -0.2904372661E-03      0.7045645872E-03

    ------------------------------------------------
       NWT REQUIRED            4 OUTER ITERATIONS 
       AND A TOTAL OF          7 INNER ITERATIONS.
    ------------------------------------------------

 NO OUTPUT CONTROL FOR STRESS PERIOD   38   TIME STEP   23
 
 SOLVING FOR HEAD 
                                                   Max.-Head-Change                         Max.-Flux-Residual
  Residual-Control   Outer-Iter.   Inner-Iter.     Column Row Layer    Maximum-Head-Change  Column Row Layer    Maximum-Flux-Residual          L2-NORM 
          0                 1           2             4    7     1       0.1915142307E-01       4    7    1         0.1004687257E+01      0.2442846361E+01
          0                 2           2             4    7     1      -0.1862918574E-02       4    7    1        -0.1004692185E+00      0.2442840739E+00
          0                 3           2             4    7     1       0.1268577769E-03       4    7    1         0.7032843678E-02      0.1709980950E-01
          0                 4           1             4    7     1      -0.5047790016E-05       4    7    1        -0.2876437266E-03      0.6993794878E-03

    ------------------------------------------------
       NWT REQUIRED            4 OUTER ITERATIONS 
       AND A TOTAL OF          7 INNER ITERATIONS.
    ------------------------------------------------

 NO OUTPUT CONTROL FOR STRESS PERIOD   38   TIME STEP   24
 
 SOLVING FOR HEAD 
                                                   Max.-Head-Change                         Max.-Flux-Residual
  Residual-Control   Outer-Iter.   Inner-Iter.     Column Row Layer    Maximum-Head-Change  Column Row Layer    Maximum-Flux-Residual          L2-NORM 
          0                 1           2             4    7     1       0.1896903208E-01       4    7    1         0.9950707003E+00      0.2425041788E+01
          0                 2           2             4    7     1      -0.1845176747E-02       4    7    1        -0.9950755226E-01      0.2425036102E+00
          0                 3           2             4    7     1       0.1256496257E-03       4    7    1         0.6965527101E-02      0.1697516787E-01
          0                 4           1             4    7     1      -0.4999716644E-05       4    7    1        -0.2848904692E-03      0.6942754016E-03

    ------------------------------------------------
       NWT REQUIRED            4 OUTER ITERATIONS 
       AND A TOTAL OF          7 INNER ITERATIONS.
    ------------------------------------------------

 NO OUTPUT CONTROL FOR STRESS PERIOD   38   TIME STEP   25
 
 SOLVING FOR HEAD 
                                                   Max.-Head-Change                         Max.-Flux-Residual
  Residual-Control   Outer-Iter.   Inner-Iter.     Column Row Layer    Maximum-Head-Change  Column Row Layer    Maximum-Flux-Residual          L2-NORM 
          0                 1           2             4    7     1       0.1878938997E-01       4    7    1         0.9855993293E+00      0.2407479326E+01
          0                 2           2             4    7     1      -0.1827702316E-02       4    7    1        -0.9856040492E-01      0.2407473496E+00
          0                 3           2             4    7     1       0.1244596831E-03       4    7    1         0.6899226850E-02      0.1685222661E-01
          0                 4           1             4    7     1      -0.4952367655E-05       4    7    1        -0.2821787896E-03      0.6892443758E-03

    ------------------------------------------------
       NWT REQUIRED            4 OUTER ITERATIONS 
       AND A TOTAL OF          7 INNER ITERATIONS.
    ------------------------------------------------

 NO OUTPUT CONTROL FOR STRESS PERIOD   38   TIME STEP   26
 
 SOLVING FOR HEAD 
                                                   Max.-Head-Change                         Max.-Flux-Residual
  Residual-Control   Outer-Iter.   Inner-Iter.     Column Row Layer    Maximum-Head-Change  Column Row Layer    Maximum-Flux-Residual          L2-NORM 
          0                 1           2             4    7     1       0.1861230220E-01       4    7    1         0.9762631733E+00      0.2390143828E+01
          0                 2           2             4    7     1      -0.1810476357E-02       4    7    1        -0.9762677934E-01      0.2390137829E+00
          0                 3           2             4    7     1       0.1232866608E-03       4    7    1         0.6833873133E-02      0.1673090040E-01
          0                 4           1             4    7     1      -0.4905691933E-05       4    7    1        -0.2795058276E-03      0.6842947690E-03

    ------------------------------------------------
       NWT REQUIRED            4 OUTER ITERATIONS 
       AND A TOTAL OF          7 INNER ITERATIONS.
    ------------------------------------------------

 NO OUTPUT CONTROL FOR STRESS PERIOD   38   TIME STEP   27
 
 SOLVING FOR HEAD 
                                                   Max.-Head-Change                         Max.-Flux-Residual
  Residual-Control   Outer-Iter.   Inner-Iter.     Column Row Layer    Maximum-Head-Change  Column Row Layer    Maximum-Flux-Residual          L2-NORM 
          0                 1           2             4    7     1       0.1843772032E-01       4    7    1         0.9670594555E+00      0.2373034705E+01
          0                 2           2             4    7     1      -0.1793494155E-02       4    7    1        -0.9670639780E-01      0.2373028383E+00
          0                 3           2             4    7     1       0.1221302371E-03       4    7    1         0.6769446491E-02      0.1661109488E-01
          0                 4           1             4    7     1      -0.4859676697E-05       4    7    1        -0.2768707598E-03      0.6793958238E-03

    ------------------------------------------------
       NWT REQUIRED            4 OUTER ITERATIONS 
       AND A TOTAL OF          7 INNER ITERATIONS.
    ------------------------------------------------

 NO OUTPUT CONTROL FOR STRESS PERIOD   38   TIME STEP   28
 
 SOLVING FOR HEAD 
                                                   Max.-Head-Change                         Max.-Flux-Residual
  Residual-Control   Outer-Iter.   Inner-Iter.     Column Row Layer    Maximum-Head-Change  Column Row Layer    Maximum-Flux-Residual          L2-NORM 
          0                 1           2             4    7     1       0.1826572743E-01       4    7    1         0.9579929746E+00      0.2356145699E+01
          0                 2           2             4    7     1      -0.1776763796E-02       4    7    1        -0.9579974023E-01      0.2356139657E+00
          0                 3           1             4    7     1       0.1209909670E-03       4    7    1         0.6705980525E-02      0.1649289898E-01
          0                 4           1             4    7     1      -0.4814347968E-05       4    7    1        -0.2742750130E-03      0.6745598288E-03

    ------------------------------------------------
       NWT REQUIRED            4 OUTER ITERATIONS 
       AND A TOTAL OF          6 INNER ITERATIONS.
    ------------------------------------------------

 NO OUTPUT CONTROL FOR STRESS PERIOD   38   TIME STEP   29
 
 SOLVING FOR HEAD 
                                                   Max.-Head-Change                         Max.-Flux-Residual
  Residual-Control   Outer-Iter.   Inner-Iter.     Column Row Layer    Maximum-Head-Change  Column Row Layer    Maximum-Flux-Residual          L2-NORM 
          0                 1           2             4    7     1       0.1809613969E-01       4    7    1         0.9490534174E+00      0.2339477121E+01
          0                 2           2             4    7     1      -0.1760267394E-02       4    7    1        -0.9490577521E-01      0.2339470896E+00
          0                 3           1             4    7     1       0.1198676241E-03       4    7    1         0.6643403025E-02      0.1637620408E-01
          0                 4           1             4    7     1      -0.4769648986E-05       4    7    1        -0.2717155799E-03      0.6698726890E-03

    ------------------------------------------------
       NWT REQUIRED            4 OUTER ITERATIONS 
       AND A TOTAL OF          6 INNER ITERATIONS.
    ------------------------------------------------

 NO OUTPUT CONTROL FOR STRESS PERIOD   38   TIME STEP   30



 STREAM LISTING     PERIOD     38   STEP       30

 LAYER ROW COL. STREAM  RCH.  FLOW INTO     FLOW TO   FLOW OUT OF   OVRLND.     DIRECT     STREAM       STREAM     STREAM     STREAM   STREAMBED  STREAMBED
                SEG.NO.  NO.  STRM. RCH.    AQUIFER    STRM. RCH.    RUNOFF     PRECIP       ET          HEAD       DEPTH      WIDTH   CONDCTNC.   GRADIENT

   1    1    1     1     1    1.9000E+01  2.1427E-01   1.8786E+01  0.000E+00  0.000E+00  0.000E+00  1.09413E+03  1.082E+00  1.166E+01  5.249E-02  1.361E+00
   1    2    2     1     2    1.8786E+01  3.3054E-01   1.8455E+01  0.000E+00  0.000E+00  0.000E+00  1.08914E+03  1.077E+00  1.158E+01  8.107E-02  1.359E+00
   1    3    3     1     3    1.8455E+01  2.8064E-01   1.8175E+01  0.000E+00  0.000E+00  0.000E+00  1.08349E+03  1.072E+00  1.149E+01  6.892E-02  1.357E+00
   1    3    4     1     4    1.8175E+01  2.5740E-01   1.7917E+01  0.000E+00  0.000E+00  0.000E+00  1.07848E+03  1.068E+00  1.140E+01  6.328E-02  1.356E+00
   1    4    5     2     1    1.5917E+01  3.0542E-01   1.5612E+01  0.000E+00  0.000E+00  0.000E+00  1.07285E+03  9.157E-01  1.200E+01  7.800E-02  1.305E+00
   1    5    6     2     2    1.5612E+01  2.3438E-01   1.5377E+01  0.000E+00  0.000E+00  0.000E+00  1.06742E+03  9.063E-01  1.200E+01  6.000E-02  1.302E+00
   1    6    6     2     3    1.5377E+01  2.3388E-01   1.5143E+01  0.000E+00  0.000E+00  0.000E+00  1.06269E+03  8.980E-01  1.200E+01  6.000E-02  1.299E+00
   1    7    6     2     4    1.5143E+01  2.3338E-01   1.4910E+01  0.000E+00  0.000E+00  0.000E+00  1.05797E+03  8.897E-01  1.200E+01  6.000E-02  1.297E+00
   1    8    6     2     5    1.4910E+01  2.3289E-01   1.4677E+01  0.000E+00  0.000E+00  0.000E+00  1.05324E+03  8.814E-01  1.200E+01  6.000E-02  1.294E+00
   1    3    5     3     1    2.0000E+00  2.8252E-01   1.7175E+00  0.000E+00  0.000E+00  0.000E+00  1.07555E+03  1.909E+00  9.636E+00  7.227E-02  1.955E+00
   1    3    6     3     2    1.7175E+00  2.4905E-01   1.4684E+00  0.000E+00  0.000E+00  0.000E+00  1.07264E+03  1.727E+00  8.909E+00  6.682E-02  1.864E+00
   1    3    7     3     3    1.4684E+00  1.9718E-01   1.2712E+00  0.000E+00  0.000E+00  0.000E+00  1.06987E+03  1.555E+00  8.218E+00  5.547E-02  1.777E+00
   1    4    8     3     4    1.2712E+00  2.2567E-01   1.0456E+00  0.000E+00  0.000E+00  0.000E+00  1.06682E+03  1.364E+00  7.455E+00  6.709E-02  1.682E+00
   1    5    8     3     5    1.0456E+00  1.5790E-01   8.8768E-01  0.000E+00  0.000E+00  0.000E+00  1.06362E+03  1.164E+00  6.655E+00  4.991E-02  1.582E+00
   1    6    8     3     6    8.8768E-01  5.5980E-02   8.3170E-01  0.000E+00  0.000E+00  0.000E+00  1.06158E+03  1.036E+00  6.145E+00  1.844E-02  1.518E+00
   1    5   10     4     1    1.0000E+01  9.0919E-02   9.9091E+00  0.000E+00  0.000E+00  0.000E+00  1.07836E+03  6.368E-01  1.000E+01  2.500E-02  1.212E+00
   1    5    9     4     2    9.9091E+00  1.8158E-01   9.7275E+00  0.000E+00  0.000E+00  0.000E+00  1.07154E+03  6.315E-01  1.000E+01  5.000E-02  1.211E+00
   1    6    8     4     3    9.7275E+00  1.2689E-01   9.6006E+00  0.000E+00  0.000E+00  0.000E+00  1.06381E+03  6.256E-01  1.000E+01  3.500E-02  1.209E+00
   1    6    8     5     1    1.0432E+01  2.2686E-01   1.0205E+01  0.000E+00  0.000E+00  0.000E+00  1.05868E+03  6.790E-01  1.542E+01  6.166E-02  1.226E+00
   1    7    7     5     2    1.0205E+01  2.7894E-01   9.9265E+00  0.000E+00  0.000E+00  0.000E+00  1.05417E+03  6.732E-01  1.519E+01  7.594E-02  1.224E+00
   1    8    7     5     3    9.9265E+00  1.9221E-01   9.7343E+00  0.000E+00  0.000E+00  0.000E+00  1.04992E+03  6.676E-01  1.497E+01  5.241E-02  1.223E+00
   1    8    6     5     4    9.7343E+00  1.3577E-01   9.5985E+00  0.000E+00  0.000E+00  0.000E+00  1.04691E+03  6.637E-01  1.482E+01  3.706E-02  1.221E+00
   1    9    6     6     1    2.4276E+01  2.5176E-01   2.4024E+01  0.000E+00  0.000E+00  0.000E+00  1.04392E+03  1.196E+00  1.200E+01  6.000E-02  1.399E+00
   1   10    7     6     2    2.4024E+01  2.5131E-01   2.3773E+01  0.000E+00  0.000E+00  0.000E+00  1.03937E+03  1.188E+00  1.200E+01  6.000E-02  1.396E+00
   1   11    7     6     3    2.3773E+01  2.5086E-01   2.3522E+01  0.000E+00  0.000E+00  0.000E+00  1.03482E+03  1.181E+00  1.200E+01  6.000E-02  1.394E+00
   1   12    7     6     4    2.3522E+01  2.5041E-01   2.3271E+01  0.000E+00  0.000E+00  0.000E+00  1.03026E+03  1.173E+00  1.200E+01  6.000E-02  1.391E+00
   1   13    7     6     5    2.3271E+01  8.8635E-03   2.3263E+01  0.000E+00  0.000E+00  0.000E+00  1.02708E+03  1.170E+00  1.200E+01  2.400E-02  1.231E-01
   1   14    9     7     1    1.5000E+02  1.3610E+00   1.4864E+02  0.000E+00  0.000E+00  0.000E+00  1.03987E+03  2.288E+00  5.529E+01  5.593E-01  8.112E-01
   1   13    8     7     2    1.4864E+02  1.9394E+00   1.4670E+02  0.000E+00  0.000E+00  0.000E+00  1.03478E+03  2.279E+00  5.525E+01  6.148E-01  1.052E+00
   1   13    7     7     3    1.4670E+02  1.6636E+00   1.4504E+02  0.000E+00  0.000E+00  0.000E+00  1.02969E+03  2.269E+00  5.521E+01  5.584E-01  9.931E-01
   1   13    6     8     1    1.6830E+02  1.1056E+00   1.6719E+02  0.000E+00  0.000E+00  0.000E+00  1.02481E+03  2.937E+00  4.259E+01  4.340E-01  8.491E-01
   1   13    5     8     2    1.6719E+02  3.5137E-01   1.6684E+02  0.000E+00  0.000E+00  0.000E+00  1.01856E+03  2.933E+00  4.252E+01  4.333E-01  2.703E-01
   1   13    4     8     3    1.6684E+02 -1.8349E+00   1.6868E+02  0.000E+00  0.000E+00  0.000E+00  1.01231E+03  2.938E+00  4.259E+01  4.341E+00 -1.409E-01
   1   13    3     8     4    1.6868E+02 -3.3633E+00   1.7204E+02  0.000E+00  0.000E+00  0.000E+00  1.00608E+03  2.955E+00  4.284E+01  4.366E+00 -2.568E-01
   1   13    2     8     5    1.7204E+02 -2.5096E+00   1.7455E+02  0.000E+00  0.000E+00  0.000E+00  9.99849E+02  2.974E+00  4.312E+01  4.394E+00 -1.904E-01
   1   13    1     8     6    1.7455E+02 -1.9655E+00   1.7651E+02  0.000E+00  0.000E+00  0.000E+00  9.94863E+02  2.988E+00  4.332E+01  2.649E+00 -2.473E-01





UNSATURATED ZONE PACKAGE VOLUMETRIC BUDGET FOR  TIME STEP    30 STRESS PERIOD   38
  ------------------------------------------------------------------------------



     CUMULATIVE VOLUMES      L**3       RATES FOR THIS TIME STEP      L**3/T
     ------------------                 ------------------------

           IN:                                      IN:
           ---                                      ---
        INFILTRATION =  1624124268.3425          INFILTRATION =           4.4075

          OUT:                                     OUT:
          ----                                     ----
              UZF ET =  1501669891.5726                UZF ET =           0.7250
        UZF RECHARGE =      883910.3275          UZF RECHARGE =       0.0000E+00

            IN - OUT =   121570466.4424              IN - OUT =           3.6825

          STORAGE:                                 STORAGE:
          --------                                 --------
      STORAGE CHANGE =   121572098.9222        STORAGE CHANGE =           3.6825

 PERCENT DISCREPANCY IS DIFFERENCE BETWEEN IN-OUT MINUS CHANGE IN STORAGE
 DIVIDED BY THE AVERAGE OF IN AND OUT TIMES 100

 PERCENT DISCREPANCY =          -0.00     PERCENT DISCREPANCY =           0.00






1
  VOLUMETRIC BUDGET FOR ENTIRE MODEL AT END OF TIME STEP   30, STRESS PERIOD  38
  ------------------------------------------------------------------------------

     CUMULATIVE VOLUMES      L**3       RATES FOR THIS TIME STEP      L**3/T
     ------------------                 ------------------------

           IN:                                      IN:
           ---                                      ---
               AG WELLS  =  1195158016.0000                 AG WELLS  =           0.0000
      DIVERSION SEGMENTS =           0.0000        DIVERSION SEGMENTS =           0.0000
           GW IRRIGATION =           0.0000             GW IRRIGATION =           0.0000
           SW IRRIGATION =           0.0000             SW IRRIGATION =           0.0000
        SYSTEM LOSSES GW =           0.0000          SYSTEM LOSSES GW =           0.0000
        SYSTEM LOSSES SW =           0.0000          SYSTEM LOSSES SW =           0.0000

                TOTAL IN =  1195158016.0000                  TOTAL IN =           0.0000

          OUT:                                     OUT:
          ----                                     ----
               AG WELLS  =           0.0000                 AG WELLS  =           0.0000
      DIVERSION SEGMENTS =           0.0000        DIVERSION SEGMENTS =           0.0000
           GW IRRIGATION =  1195158016.0000             GW IRRIGATION =           0.0000
           SW IRRIGATION =           0.0000             SW IRRIGATION =           0.0000
        SYSTEM LOSSES GW =           0.0000          SYSTEM LOSSES GW =           0.0000
        SYSTEM LOSSES SW =           0.0000          SYSTEM LOSSES SW =           0.0000

               TOTAL OUT =  1195158016.0000                 TOTAL OUT =           0.0000

                IN - OUT =           0.0000                  IN - OUT =           0.0000

     PERCENT DISCREPANCY =           0.00         PERCENT DISCREPANCY =           0.00



1
  VOLUMETRIC BUDGET FOR ENTIRE MODEL AT END OF TIME STEP   30, STRESS PERIOD  38
  ------------------------------------------------------------------------------

     CUMULATIVE VOLUMES      L**3       RATES FOR THIS TIME STEP      L**3/T
     ------------------                 ------------------------

           IN:                                      IN:
           ---                                      ---
             STORAGE     =  1656123648.0000               STORAGE     =           6.0552
       CONSTANT HEAD     =           0.0000         CONSTANT HEAD     =           0.0000
     HEAD DEP BOUNDS     =    27843418.0000       HEAD DEP BOUNDS     =           0.2875
      STREAM LEAKAGE     =  1192216576.0000        STREAM LEAKAGE     =          12.1584
        UZF RECHARGE     =      883910.4375          UZF RECHARGE     =           0.0000
               GW ET     =           0.0000                 GW ET     =           0.0000
     SURFACE LEAKAGE     =           0.0000       SURFACE LEAKAGE     =           0.0000
           AG WELLS      =           0.0000             AG WELLS      =           0.0000

                TOTAL IN =  2877067520.0000                  TOTAL IN =          18.5011

          OUT:                                     OUT:
          ----                                     ----
             STORAGE     =   637532736.0000               STORAGE     =           8.5388
       CONSTANT HEAD     =           0.0000         CONSTANT HEAD     =           0.0000
     HEAD DEP BOUNDS     =    28473754.0000       HEAD DEP BOUNDS     =           0.2890
      STREAM LEAKAGE     =   998585408.0000        STREAM LEAKAGE     =           9.6733
        UZF RECHARGE     =           0.0000          UZF RECHARGE     =           0.0000
               GW ET     =    17319432.0000                 GW ET     =           0.0000
     SURFACE LEAKAGE     =           0.0000       SURFACE LEAKAGE     =           0.0000
           AG WELLS      =  1195158016.0000             AG WELLS      =           0.0000

               TOTAL OUT =  2877069312.0000                 TOTAL OUT =          18.5011

                IN - OUT =       -1792.0000                  IN - OUT =       1.3351E-05

     PERCENT DISCREPANCY =          -0.00         PERCENT DISCREPANCY =           0.00






         TIME SUMMARY AT END OF TIME STEP   30 IN STRESS PERIOD   38
                    SECONDS     MINUTES      HOURS       DAYS        YEARS
                    -----------------------------------------------------------
   TIME STEP LENGTH  87667.      1461.1      24.352      1.0147     2.77799E-03
 STRESS PERIOD TIME 2.63000E+06  43833.      730.56      30.440     8.33397E-02
         TOTAL TIME 9.73959E+07 1.62326E+06  27054.      1127.3      3.0863    
1
1
                            STRESS PERIOD NO.   39, LENGTH =   2630000.    
                            -----------------------------------------------

                              NUMBER OF TIME STEPS =    30

                               MULTIPLIER FOR DELT =     1.000

                            INITIAL TIME STEP SIZE =   87666.66    

 REUSING NON-PARAMETER GHB CELLS FROM LAST STRESS PERIOD

      2 GHB CELLS

 REUSING STREAM SEGMENT DATA FROM LAST STRESS PERIOD



            AREAL INFILTRATION RATE
 READING ON UNIT   19 WITH FORMAT: (10F4.0)            

            1           2           3           4           5           6           7           8           9          10
 ........................................................................................................................
   1   1.2000E-09   0.000       0.000       0.000       0.000       0.000       0.000       0.000       0.000       0.000    
   2   2.1000E-09  2.0000E-09  8.0000E-10  8.5000E-09   0.000       0.000       0.000       0.000       0.000       0.000    
   3   5.0000E-10  1.1000E-09  8.8000E-09  5.5000E-09   0.000       0.000       0.000       0.000       0.000       0.000    
   4   8.5000E-09  1.1000E-09  1.1000E-09  1.1000E-09  2.0000E-09   0.000       0.000       0.000       0.000       0.000    
   5   8.5000E-09  1.1000E-09  1.1000E-09  1.1000E-09  1.1000E-09   0.000       0.000       0.000       0.000       0.000    
   6   8.5000E-09  5.2000E-09  2.1000E-09  1.1000E-09  1.5000E-09   0.000       0.000       0.000       0.000       0.000    
   7   8.5000E-09  5.2000E-09  2.1000E-09  1.2000E-09  2.0000E-09   0.000       0.000       0.000       0.000       0.000    
   8   5.0000E-10  5.2000E-09  2.1000E-09  1.2000E-09  5.0000E-09   0.000       0.000       0.000       0.000       0.000    
   9   5.0000E-10  5.2000E-09  2.1000E-09  1.2000E-09  5.0000E-09   0.000       0.000       0.000       0.000       0.000    
  10   5.0000E-10  5.2000E-09  2.1000E-09  1.2000E-09  5.8000E-09   0.000       0.000       0.000       0.000       0.000    
  11   1.0000E-10  1.1000E-09  1.1000E-09  1.2000E-09  5.0000E-09   0.000       0.000       0.000       0.000       0.000    
  12   1.1000E-09  1.1000E-09  1.1000E-09  1.1000E-09  2.0000E-09   0.000       0.000       0.000       0.000       0.000    
  13   1.1000E-09  2.2000E-09  2.2000E-09  2.1000E-09  1.0000E-09   0.000       0.000       0.000       0.000       0.000    
  14   2.0000E-10  5.5000E-09  5.5000E-09  5.2000E-09  1.0000E-09   0.000       0.000       0.000       0.000       0.000    
  15    0.000      8.8000E-09  8.8000E-09   0.000       0.000       0.000       0.000       0.000       0.000       0.000    

                  ET RATE =  5.000000E-10

 USING ET EXTINCTION DEPTH FROM PREVIOUS STRESS PERIOD. CURRENT PERIOD IS:      39

 USING EXTINCTION WATER CONTENT FROM PREVIOUS STRESS PERIOD. CURRENT PERIOD IS:      39

 USING AIR ENTRY PRESSURE FROM PREVIOUS STRESS PERIOD. CURRENT PERIOD IS:      39

 USING ROOT PRESSURE HEAD FROM PREVIOUS STRESS PERIOD. CURRENT PERIOD IS:      39

 USING ROOT ACTIVITY FROM PREVIOUS STRESS PERIOD. CURRENT PERIOD IS:      39

 PROCESSING AG STRESS PERIOD DATA

 READING AG STRESS PERIOD DATA

 READING IRRIGATION WELL

 END PROCESSING AG STRESS PERIOD DATA OPTIONS
 
 SOLVING FOR HEAD 
                                                   Max.-Head-Change                         Max.-Flux-Residual
  Residual-Control   Outer-Iter.   Inner-Iter.     Column Row Layer    Maximum-Head-Change  Column Row Layer    Maximum-Flux-Residual          L2-NORM 
          0                 1           2             4    7     1       0.1792891038E-01       4    7    1         0.9402385628E+00      0.2323023107E+01
          0                 2           2             4    7     1      -0.1744000408E-02       4    7    1        -0.9402428068E-01      0.2323016769E+00
          0                 3           1             4    7     1       0.1187599041E-03       4    7    1         0.6581698475E-02      0.1626102768E-01
          0                 4           1             4    7     1      -0.4725571579E-05       4    7    1        -0.2691918644E-03      0.6650718600E-03

    ------------------------------------------------
       NWT REQUIRED            4 OUTER ITERATIONS 
       AND A TOTAL OF          6 INNER ITERATIONS.
    ------------------------------------------------

 NO OUTPUT CONTROL FOR STRESS PERIOD   39   TIME STEP    1
 
 SOLVING FOR HEAD 
                                                   Max.-Head-Change                         Max.-Flux-Residual
  Residual-Control   Outer-Iter.   Inner-Iter.     Column Row Layer    Maximum-Head-Change  Column Row Layer    Maximum-Flux-Residual          L2-NORM 
          0                 1           2             4    7     1       0.1776413107E-01       4    7    1         0.9315533006E+00      0.2306788330E+01
          0                 2           2             4    7     1      -0.1727971743E-02       4    7    1        -0.9315574561E-01      0.2306781946E+00
          0                 3           1             4    7     1       0.1176684129E-03       4    7    1         0.6520901085E-02      0.1614738490E-01
          0                 4           1             4    7     1      -0.4682140152E-05       4    7    1        -0.2667052502E-03      0.6604166582E-03

    ------------------------------------------------
       NWT REQUIRED            4 OUTER ITERATIONS 
       AND A TOTAL OF          6 INNER ITERATIONS.
    ------------------------------------------------

 NO OUTPUT CONTROL FOR STRESS PERIOD   39   TIME STEP    2
 
 SOLVING FOR HEAD 
                                                   Max.-Head-Change                         Max.-Flux-Residual
  Residual-Control   Outer-Iter.   Inner-Iter.     Column Row Layer    Maximum-Head-Change  Column Row Layer    Maximum-Flux-Residual          L2-NORM 
          0                 1           2             4    7     1       0.1760174939E-01       4    7    1         0.9229950671E+00      0.2290750070E+01
          0                 2           2             4    7     1      -0.1712176305E-02       4    7    1        -0.9229991365E-01      0.2290743678E+00
          0                 3           1             4    7     1       0.1165928033E-03       4    7    1         0.6460992889E-02      0.1603512239E-01
          0                 4           1             4    7     1      -0.4639340891E-05       4    7    1        -0.2642550085E-03      0.6558676976E-03

    ------------------------------------------------
       NWT REQUIRED            4 OUTER ITERATIONS 
       AND A TOTAL OF          6 INNER ITERATIONS.
    ------------------------------------------------

 NO OUTPUT CONTROL FOR STRESS PERIOD   39   TIME STEP    3
 
 SOLVING FOR HEAD 
                                                   Max.-Head-Change                         Max.-Flux-Residual
  Residual-Control   Outer-Iter.   Inner-Iter.     Column Row Layer    Maximum-Head-Change  Column Row Layer    Maximum-Flux-Residual          L2-NORM 
          0                 1           2             4    7     1       0.1744158448E-01       4    7    1         0.9145538348E+00      0.2274926064E+01
          0                 2           2             4    7     1      -0.1698089847E-02       4    7    1        -0.9156019088E-01      0.2275209483E+00
          0                 3           1             4    7     1       0.1156335646E-03       4    7    1         0.6409212079E-02      0.1592683818E-01
          0                 4           1             4    7     1      -0.4601171486E-05       4    7    1        -0.2621371548E-03      0.6620178446E-03

    ------------------------------------------------
       NWT REQUIRED            4 OUTER ITERATIONS 
       AND A TOTAL OF          6 INNER ITERATIONS.
    ------------------------------------------------

 NO OUTPUT CONTROL FOR STRESS PERIOD   39   TIME STEP    4
 
 SOLVING FOR HEAD 
                                                   Max.-Head-Change                         Max.-Flux-Residual
  Residual-Control   Outer-Iter.   Inner-Iter.     Column Row Layer    Maximum-Head-Change  Column Row Layer    Maximum-Flux-Residual          L2-NORM 
          0                 1           2             4    7     1       0.1727875999E-01       4    7    1         0.9061552510E+00      0.2259278983E+01
          0                 2           2             4    7     1      -0.1680758377E-02       4    7    1        -0.9061594202E-01      0.2259272617E+00
          0                 3           1             4    7     1       0.1144533571E-03       4    7    1         0.6343114723E-02      0.1581481558E-01
          0                 4           1             4    7     1      -0.4554209902E-05       4    7    1        -0.2594337657E-03      0.6468213398E-03

    ------------------------------------------------
       NWT REQUIRED            4 OUTER ITERATIONS 
       AND A TOTAL OF          6 INNER ITERATIONS.
    ------------------------------------------------

 NO OUTPUT CONTROL FOR STRESS PERIOD   39   TIME STEP    5
 
 SOLVING FOR HEAD 
                                                   Max.-Head-Change                         Max.-Flux-Residual
  Residual-Control   Outer-Iter.   Inner-Iter.     Column Row Layer    Maximum-Head-Change  Column Row Layer    Maximum-Flux-Residual          L2-NORM 
          0                 1           2             4    7     1       0.1711987143E-01       4    7    1         0.8977706343E+00      0.2243918430E+01
          0                 2           2             4    7     1      -0.1665302710E-02       4    7    1        -0.8977747071E-01      0.2243975819E+00
          0                 3           1             4    7     1       0.1134008850E-03       4    7    1         0.6284421799E-02      0.1571171280E-01
          0                 4           1             4    7     1      -0.4512330971E-05       4    7    1        -0.2570332258E-03      0.6437280701E-03

    ------------------------------------------------
       NWT REQUIRED            4 OUTER ITERATIONS 
       AND A TOTAL OF          6 INNER ITERATIONS.
    ------------------------------------------------

 NO OUTPUT CONTROL FOR STRESS PERIOD   39   TIME STEP    6
 
 SOLVING FOR HEAD 
                                                   Max.-Head-Change                         Max.-Flux-Residual
  Residual-Control   Outer-Iter.   Inner-Iter.     Column Row Layer    Maximum-Head-Change  Column Row Layer    Maximum-Flux-Residual          L2-NORM 
          0                 1           2             4    7     1       0.1696346215E-01       4    7    1         0.8895178248E+00      0.2228675468E+01
          0                 2           2             4    7     1      -0.1650088214E-02       4    7    1        -0.8895218043E-01      0.2228767967E+00
          0                 3           1             4    7     1       0.1123648358E-03       4    7    1         0.6226651555E-02      0.1560698221E-01
          0                 4           1             4    7     1      -0.4471105734E-05       4    7    1        -0.2546704206E-03      0.6411274278E-03

    ------------------------------------------------
       NWT REQUIRED            4 OUTER ITERATIONS 
       AND A TOTAL OF          6 INNER ITERATIONS.
    ------------------------------------------------

 NO OUTPUT CONTROL FOR STRESS PERIOD   39   TIME STEP    7
 
 SOLVING FOR HEAD 
                                                   Max.-Head-Change                         Max.-Flux-Residual
  Residual-Control   Outer-Iter.   Inner-Iter.     Column Row Layer    Maximum-Head-Change  Column Row Layer    Maximum-Flux-Residual          L2-NORM 
          0                 1           2             4    7     1       0.1680947052E-01       4    7    1         0.8813935624E+00      0.2213522215E+01
          0                 2           2             4    7     1      -0.1635108893E-02       4    7    1        -0.8813974510E-01      0.2213584752E+00
          0                 3           1             4    7     1       0.1113448007E-03       4    7    1         0.6169781143E-02      0.1549916921E-01
          0                 4           1             4    7     1      -0.4430517268E-05       4    7    1        -0.2523444084E-03      0.6359435139E-03

    ------------------------------------------------
       NWT REQUIRED            4 OUTER ITERATIONS 
       AND A TOTAL OF          6 INNER ITERATIONS.
    ------------------------------------------------

 NO OUTPUT CONTROL FOR STRESS PERIOD   39   TIME STEP    8
 
 SOLVING FOR HEAD 
                                                   Max.-Head-Change                         Max.-Flux-Residual
  Residual-Control   Outer-Iter.   Inner-Iter.     Column Row Layer    Maximum-Head-Change  Column Row Layer    Maximum-Flux-Residual          L2-NORM 
          0                 1           2             4    7     1       0.1665769998E-01       4    7    1         0.8733873381E+00      0.2198564696E+01
          0                 2           2             4    7     1      -0.1620345628E-02       4    7    1        -0.8733911387E-01      0.2198605286E+00
          0                 3           1             4    7     1       0.1103394783E-03       4    7    1         0.6113737014E-02      0.1539318077E-01
          0                 4           1             4    7     1      -0.4390514572E-05       4    7    1        -0.2500522016E-03      0.6309971173E-03

    ------------------------------------------------
       NWT REQUIRED            4 OUTER ITERATIONS 
       AND A TOTAL OF          6 INNER ITERATIONS.
    ------------------------------------------------

 NO OUTPUT CONTROL FOR STRESS PERIOD   39   TIME STEP    9
 
 SOLVING FOR HEAD 
                                                   Max.-Head-Change                         Max.-Flux-Residual
  Residual-Control   Outer-Iter.   Inner-Iter.     Column Row Layer    Maximum-Head-Change  Column Row Layer    Maximum-Flux-Residual          L2-NORM 
          0                 1           2             4    7     1       0.1650823551E-01       4    7    1         0.8655035873E+00      0.2183808085E+01
          0                 2           2             4    7     1      -0.1605806684E-02       4    7    1        -0.8655073023E-01      0.2183833290E+00
          0                 3           1             4    7     1       0.1093494314E-03       4    7    1         0.6058550224E-02      0.1528891972E-01
          0                 4           1             4    7     1      -0.4351119634E-05       4    7    1        -0.2477950582E-03      0.6263319985E-03

    ------------------------------------------------
       NWT REQUIRED            4 OUTER ITERATIONS 
       AND A TOTAL OF          6 INNER ITERATIONS.
    ------------------------------------------------

 NO OUTPUT CONTROL FOR STRESS PERIOD   39   TIME STEP   10
 
 SOLVING FOR HEAD 
                                                   Max.-Head-Change                         Max.-Flux-Residual
  Residual-Control   Outer-Iter.   Inner-Iter.     Column Row Layer    Maximum-Head-Change  Column Row Layer    Maximum-Flux-Residual          L2-NORM 
          0                 1           2             4    7     1       0.1636102175E-01       4    7    1         0.8577394024E+00      0.2169247930E+01
          0                 2           2             4    7     1      -0.1591486677E-02       4    7    1        -0.8577430346E-01      0.2169261718E+00
          0                 3           1             4    7     1       0.1083742933E-03       4    7    1         0.6004200402E-02      0.1518622720E-01
          0                 4           1             4    7     1      -0.4312318294E-05       4    7    1        -0.2455721526E-03      0.6219469735E-03

    ------------------------------------------------
       NWT REQUIRED            4 OUTER ITERATIONS 
       AND A TOTAL OF          6 INNER ITERATIONS.
    ------------------------------------------------

 NO OUTPUT CONTROL FOR STRESS PERIOD   39   TIME STEP   11
 
 SOLVING FOR HEAD 
                                                   Max.-Head-Change                         Max.-Flux-Residual
  Residual-Control   Outer-Iter.   Inner-Iter.     Column Row Layer    Maximum-Head-Change  Column Row Layer    Maximum-Flux-Residual          L2-NORM 
          0                 1           2             4    7     1       0.1621600116E-01       4    7    1         0.8500919138E+00      0.2154874848E+01
          0                 2           2             4    7     1      -0.1577380008E-02       4    7    1        -0.8500954653E-01      0.2154881159E+00
          0                 3           1             4    7     1       0.1074136823E-03       4    7    1         0.5950667461E-02      0.1508515167E-01
          0                 4           1             4    7     1      -0.4274094434E-05       4    7    1        -0.2433826455E-03      0.6174539079E-03

    ------------------------------------------------
       NWT REQUIRED            4 OUTER ITERATIONS 
       AND A TOTAL OF          6 INNER ITERATIONS.
    ------------------------------------------------

 NO OUTPUT CONTROL FOR STRESS PERIOD   39   TIME STEP   12
 
 SOLVING FOR HEAD 
                                                   Max.-Head-Change                         Max.-Flux-Residual
  Residual-Control   Outer-Iter.   Inner-Iter.     Column Row Layer    Maximum-Head-Change  Column Row Layer    Maximum-Flux-Residual          L2-NORM 
          0                 1           2             4    7     1       0.1607299100E-01       4    7    1         0.8425508227E+00      0.2140679069E+01
          0                 2           2             4    7     1      -0.1563468903E-02       4    7    1        -0.8425542958E-01      0.2140680335E+00
          0                 3           1             4    7     1       0.1064663889E-03       4    7    1         0.5897879316E-02      0.1498539388E-01
          0                 4           1             4    7     1      -0.4236400967E-05       4    7    1        -0.2412236222E-03      0.6133435679E-03

    ------------------------------------------------
       NWT REQUIRED            4 OUTER ITERATIONS 
       AND A TOTAL OF          6 INNER ITERATIONS.
    ------------------------------------------------

 NO OUTPUT CONTROL FOR STRESS PERIOD   39   TIME STEP   13
 
 SOLVING FOR HEAD 
                                                   Max.-Head-Change                         Max.-Flux-Residual
  Residual-Control   Outer-Iter.   Inner-Iter.     Column Row Layer    Maximum-Head-Change  Column Row Layer    Maximum-Flux-Residual          L2-NORM 
          0                 1           2             4    7     1       0.1593221315E-01       4    7    1         0.8351285989E+00      0.2126667282E+01
          0                 2           2             4    7     1      -0.1549774944E-02       4    7    1        -0.8351319958E-01      0.2126665404E+00
          0                 3           1             4    7     1       0.1055338822E-03       4    7    1         0.5845923273E-02      0.1488707223E-01
          0                 4           1             4    7     1      -0.4199295687E-05       4    7    1        -0.2390986190E-03      0.6090728112E-03

    ------------------------------------------------
       NWT REQUIRED            4 OUTER ITERATIONS 
       AND A TOTAL OF          6 INNER ITERATIONS.
    ------------------------------------------------

 NO OUTPUT CONTROL FOR STRESS PERIOD   39   TIME STEP   14
 
 SOLVING FOR HEAD 
                                                   Max.-Head-Change                         Max.-Flux-Residual
  Residual-Control   Outer-Iter.   Inner-Iter.     Column Row Layer    Maximum-Head-Change  Column Row Layer    Maximum-Flux-Residual          L2-NORM 
          0                 1           2             4    7     1       0.1579334465E-01       4    7    1         0.8278074870E+00      0.2112826405E+01
          0                 2           2             4    7     1      -0.1536266716E-02       4    7    1        -0.8278108100E-01      0.2112822495E+00
          0                 3           1             4    7     1       0.1046140230E-03       4    7    1         0.5794675036E-02      0.1478999213E-01
          0                 4           1             4    7     1      -0.4162693054E-05       4    7    1        -0.2370025486E-03      0.6050157763E-03

    ------------------------------------------------
       NWT REQUIRED            4 OUTER ITERATIONS 
       AND A TOTAL OF          6 INNER ITERATIONS.
    ------------------------------------------------

 NO OUTPUT CONTROL FOR STRESS PERIOD   39   TIME STEP   15
 
 SOLVING FOR HEAD 
                                                   Max.-Head-Change                         Max.-Flux-Residual
  Residual-Control   Outer-Iter.   Inner-Iter.     Column Row Layer    Maximum-Head-Change  Column Row Layer    Maximum-Flux-Residual          L2-NORM 
          0                 1           2             4    7     1       0.1565648020E-01       4    7    1         0.8205926869E+00      0.2099162321E+01
          0                 2           2             4    7     1      -0.1522953430E-02       4    7    1        -0.8205959378E-01      0.2099157489E+00
          0                 3           1             4    7     1       0.1037074387E-03       4    7    1         0.5744170973E-02      0.1469422028E-01
          0                 4           1             4    7     1      -0.4126619892E-05       4    7    1        -0.2349369372E-03      0.6010600608E-03

    ------------------------------------------------
       NWT REQUIRED            4 OUTER ITERATIONS 
       AND A TOTAL OF          6 INNER ITERATIONS.
    ------------------------------------------------

 NO OUTPUT CONTROL FOR STRESS PERIOD   39   TIME STEP   16
 
 SOLVING FOR HEAD 
                                                   Max.-Head-Change                         Max.-Flux-Residual
  Residual-Control   Outer-Iter.   Inner-Iter.     Column Row Layer    Maximum-Head-Change  Column Row Layer    Maximum-Flux-Residual          L2-NORM 
          0                 1           2             4    7     1       0.1552170567E-01       4    7    1         0.8134891092E+00      0.2085661553E+01
          0                 2           2             4    7     1      -0.1509843441E-02       4    7    1        -0.8134922903E-01      0.2085656431E+00
          0                 3           1             4    7     1       0.1028146979E-03       4    7    1         0.5694445490E-02      0.1459964052E-01
          0                 4           1             4    7     1      -0.4091096235E-05       4    7    1        -0.2329031493E-03      0.5971484494E-03

    ------------------------------------------------
       NWT REQUIRED            4 OUTER ITERATIONS 
       AND A TOTAL OF          6 INNER ITERATIONS.
    ------------------------------------------------

 NO OUTPUT CONTROL FOR STRESS PERIOD   39   TIME STEP   17
 
 SOLVING FOR HEAD 
                                                   Max.-Head-Change                         Max.-Flux-Residual
  Residual-Control   Outer-Iter.   Inner-Iter.     Column Row Layer    Maximum-Head-Change  Column Row Layer    Maximum-Flux-Residual          L2-NORM 
          0                 1           2             4    7     1       0.1538870224E-01       4    7    1         0.8064792602E+00      0.2072324871E+01
          0                 2           2             4    7     1      -0.1496905733E-02       4    7    1        -0.8064823732E-01      0.2072320036E+00
          0                 3           1             4    7     1       0.1019336890E-03       4    7    1         0.5645376103E-02      0.1450622502E-01
          0                 4           1             4    7     1      -0.4056040456E-05       4    7    1        -0.2308962246E-03      0.5933077941E-03

    ------------------------------------------------
       NWT REQUIRED            4 OUTER ITERATIONS 
       AND A TOTAL OF          6 INNER ITERATIONS.
    ------------------------------------------------

 NO OUTPUT CONTROL FOR STRESS PERIOD   39   TIME STEP   18
 
 SOLVING FOR HEAD 
                                                   Max.-Head-Change                         Max.-Flux-Residual
  Residual-Control   Outer-Iter.   Inner-Iter.     Column Row Layer    Maximum-Head-Change  Column Row Layer    Maximum-Flux-Residual          L2-NORM 
          0                 1           2             4    7     1       0.1525757172E-01       4    7    1         0.7995685548E+00      0.2059156328E+01
          0                 2           2             4    7     1      -0.1484150210E-02       4    7    1        -0.7995716015E-01      0.2059152146E+00
          0                 3           1             4    7     1       0.1010650862E-03       4    7    1         0.5597000743E-02      0.1441402763E-01
          0                 4           1             4    7     1      -0.4021477769E-05       4    7    1        -0.2289176730E-03      0.5895298998E-03

    ------------------------------------------------
       NWT REQUIRED            4 OUTER ITERATIONS 
       AND A TOTAL OF          6 INNER ITERATIONS.
    ------------------------------------------------

 NO OUTPUT CONTROL FOR STRESS PERIOD   39   TIME STEP   19
 
 SOLVING FOR HEAD 
                                                   Max.-Head-Change                         Max.-Flux-Residual
  Residual-Control   Outer-Iter.   Inner-Iter.     Column Row Layer    Maximum-Head-Change  Column Row Layer    Maximum-Flux-Residual          L2-NORM 
          0                 1           2             4    7     1       0.1512827209E-01       4    7    1         0.7927549570E+00      0.2046140445E+01
          0                 2           2             4    7     1      -0.1471572787E-02       4    7    1        -0.7927579392E-01      0.2046136812E+00
          0                 3           1             4    7     1       0.1002086111E-03       4    7    1         0.5549305151E-02      0.1432289438E-01
          0                 4           1             4    7     1      -0.3987397582E-05       4    7    1        -0.2269669087E-03      0.5858074714E-03

    ------------------------------------------------
       NWT REQUIRED            4 OUTER ITERATIONS 
       AND A TOTAL OF          6 INNER ITERATIONS.
    ------------------------------------------------

 NO OUTPUT CONTROL FOR STRESS PERIOD   39   TIME STEP   20
 
 SOLVING FOR HEAD 
                                                   Max.-Head-Change                         Max.-Flux-Residual
  Residual-Control   Outer-Iter.   Inner-Iter.     Column Row Layer    Maximum-Head-Change  Column Row Layer    Maximum-Flux-Residual          L2-NORM 
          0                 1           2             4    7     1       0.1500089100E-01       4    7    1         0.7860436047E+00      0.2033279314E+01
          0                 2           2             4    7     1      -0.1459181988E-02       4    7    1        -0.7860465243E-01      0.2033276642E+00
          0                 3           1             4    7     1       0.9936484439E-04       4    7    1         0.5502325286E-02      0.1423288126E-01

    ------------------------------------------------
       NWT REQUIRED            3 OUTER ITERATIONS 
       AND A TOTAL OF          5 INNER ITERATIONS.
    ------------------------------------------------

 NO OUTPUT CONTROL FOR STRESS PERIOD   39   TIME STEP   21
 
 SOLVING FOR HEAD 
                                                   Max.-Head-Change                         Max.-Flux-Residual
  Residual-Control   Outer-Iter.   Inner-Iter.     Column Row Layer    Maximum-Head-Change  Column Row Layer    Maximum-Flux-Residual          L2-NORM 
          0                 1           2             4    7     1       0.1487507513E-01       4    7    1         0.7794146987E+00      0.2020567791E+01
          0                 2           2             4    7     1      -0.1446943444E-02       4    7    1        -0.7794175575E-01      0.2020566037E+00
          0                 3           1             4    7     1       0.9853144597E-04       4    7    1         0.5455922565E-02      0.1414392169E-01

    ------------------------------------------------
       NWT REQUIRED            3 OUTER ITERATIONS 
       AND A TOTAL OF          5 INNER ITERATIONS.
    ------------------------------------------------

 NO OUTPUT CONTROL FOR STRESS PERIOD   39   TIME STEP   22
 
 SOLVING FOR HEAD 
                                                   Max.-Head-Change                         Max.-Flux-Residual
  Residual-Control   Outer-Iter.   Inner-Iter.     Column Row Layer    Maximum-Head-Change  Column Row Layer    Maximum-Flux-Residual          L2-NORM 
          0                 1           2             4    7     1       0.1475110756E-01       4    7    1         0.7728840047E+00      0.2008009984E+01
          0                 2           2             4    7     1      -0.1434884691E-02       4    7    1        -0.7728868040E-01      0.2008009037E+00
          0                 3           1             4    7     1       0.9771029031E-04       4    7    1         0.5410207318E-02      0.1405601852E-01

    ------------------------------------------------
       NWT REQUIRED            3 OUTER ITERATIONS 
       AND A TOTAL OF          5 INNER ITERATIONS.
    ------------------------------------------------

 NO OUTPUT CONTROL FOR STRESS PERIOD   39   TIME STEP   23
 
 SOLVING FOR HEAD 
                                                   Max.-Head-Change                         Max.-Flux-Residual
  Residual-Control   Outer-Iter.   Inner-Iter.     Column Row Layer    Maximum-Head-Change  Column Row Layer    Maximum-Flux-Residual          L2-NORM 
          0                 1           2             4    7     1       0.1462867564E-01       4    7    1         0.7664345076E+00      0.1995598220E+01
          0                 2           2             4    7     1      -0.1422975318E-02       4    7    1        -0.7664372490E-01      0.1995598098E+00
          0                 3           1             4    7     1       0.9689930709E-04       4    7    1         0.5365060471E-02      0.1396915178E-01

    ------------------------------------------------
       NWT REQUIRED            3 OUTER ITERATIONS 
       AND A TOTAL OF          5 INNER ITERATIONS.
    ------------------------------------------------

 NO OUTPUT CONTROL FOR STRESS PERIOD   39   TIME STEP   24
 
 SOLVING FOR HEAD 
                                                   Max.-Head-Change                         Max.-Flux-Residual
  Residual-Control   Outer-Iter.   Inner-Iter.     Column Row Layer    Maximum-Head-Change  Column Row Layer    Maximum-Flux-Residual          L2-NORM 
          0                 1           2             4    7     1       0.1450801929E-01       4    7    1         0.7600792657E+00      0.1983331766E+01
          0                 2           2             4    7     1      -0.1411238662E-02       4    7    1        -0.7600819507E-01      0.1983332565E+00
          0                 3           1             4    7     1       0.9610008512E-04       4    7    1         0.5320573425E-02      0.1388330648E-01

    ------------------------------------------------
       NWT REQUIRED            3 OUTER ITERATIONS 
       AND A TOTAL OF          5 INNER ITERATIONS.
    ------------------------------------------------

 NO OUTPUT CONTROL FOR STRESS PERIOD   39   TIME STEP   25
 
 SOLVING FOR HEAD 
                                                   Max.-Head-Change                         Max.-Flux-Residual
  Residual-Control   Outer-Iter.   Inner-Iter.     Column Row Layer    Maximum-Head-Change  Column Row Layer    Maximum-Flux-Residual          L2-NORM 
          0                 1           2             4    7     1       0.1438909724E-01       4    7    1         0.7538160839E+00      0.1971213468E+01
          0                 2           2             4    7     1      -0.1399670708E-02       4    7    1        -0.7538187143E-01      0.1971215054E+00
          0                 3           1             4    7     1       0.9531235115E-04       4    7    1         0.5276730797E-02      0.1379849679E-01

    ------------------------------------------------
       NWT REQUIRED            3 OUTER ITERATIONS 
       AND A TOTAL OF          5 INNER ITERATIONS.
    ------------------------------------------------

 NO OUTPUT CONTROL FOR STRESS PERIOD   39   TIME STEP   26
 
 SOLVING FOR HEAD 
                                                   Max.-Head-Change                         Max.-Flux-Residual
  Residual-Control   Outer-Iter.   Inner-Iter.     Column Row Layer    Maximum-Head-Change  Column Row Layer    Maximum-Flux-Residual          L2-NORM 
          0                 1           2             4    7     1       0.1427160315E-01       4    7    1         0.7476281868E+00      0.1959230928E+01
          0                 2           2             4    7     1      -0.1388241657E-02       4    7    1        -0.7476307637E-01      0.1959232943E+00
          0                 3           1             4    7     1       0.9453407607E-04       4    7    1         0.5233415180E-02      0.1371461980E-01

    ------------------------------------------------
       NWT REQUIRED            3 OUTER ITERATIONS 
       AND A TOTAL OF          5 INNER ITERATIONS.
    ------------------------------------------------

 NO OUTPUT CONTROL FOR STRESS PERIOD   39   TIME STEP   27
 
 SOLVING FOR HEAD 
                                                   Max.-Head-Change                         Max.-Flux-Residual
  Residual-Control   Outer-Iter.   Inner-Iter.     Column Row Layer    Maximum-Head-Change  Column Row Layer    Maximum-Flux-Residual          L2-NORM 
          0                 1           2             4    7     1       0.1415577989E-01       4    7    1         0.7415289627E+00      0.1947389667E+01
          0                 2           2             4    7     1      -0.1376975135E-02       4    7    1        -0.7415314876E-01      0.1947392646E+00
          0                 3           1             4    7     1       0.9376686830E-04       4    7    1         0.5190720266E-02      0.1363178540E-01

    ------------------------------------------------
       NWT REQUIRED            3 OUTER ITERATIONS 
       AND A TOTAL OF          5 INNER ITERATIONS.
    ------------------------------------------------

 NO OUTPUT CONTROL FOR STRESS PERIOD   39   TIME STEP   28
 
 SOLVING FOR HEAD 
                                                   Max.-Head-Change                         Max.-Flux-Residual
  Residual-Control   Outer-Iter.   Inner-Iter.     Column Row Layer    Maximum-Head-Change  Column Row Layer    Maximum-Flux-Residual          L2-NORM 
          0                 1           2             4    7     1       0.1404132052E-01       4    7    1         0.7355017320E+00      0.1935685204E+01
          0                 2           2             4    7     1      -0.1365841284E-02       4    7    1        -0.7355042059E-01      0.1935688566E+00
          0                 3           1             4    7     1       0.9300869506E-04       4    7    1         0.5148529329E-02      0.1354984113E-01

    ------------------------------------------------
       NWT REQUIRED            3 OUTER ITERATIONS 
       AND A TOTAL OF          5 INNER ITERATIONS.
    ------------------------------------------------

 NO OUTPUT CONTROL FOR STRESS PERIOD   39   TIME STEP   29
 
 SOLVING FOR HEAD 
                                                   Max.-Head-Change                         Max.-Flux-Residual
  Residual-Control   Outer-Iter.   Inner-Iter.     Column Row Layer    Maximum-Head-Change  Column Row Layer    Maximum-Flux-Residual          L2-NORM 
          0                 1           2             4    7     1       0.1392860292E-01       4    7    1         0.7295671712E+00      0.1924110729E+01
          0                 2           2             4    7     1      -0.1354876863E-02       4    7    1        -0.7295695960E-01      0.1924114523E+00
          0                 3           1             4    7     1       0.9226205940E-04       4    7    1         0.5106987089E-02      0.1346885216E-01

    ------------------------------------------------
       NWT REQUIRED            3 OUTER ITERATIONS 
       AND A TOTAL OF          5 INNER ITERATIONS.
    ------------------------------------------------

 NO OUTPUT CONTROL FOR STRESS PERIOD   39   TIME STEP   30



 STREAM LISTING     PERIOD     39   STEP       30

 LAYER ROW COL. STREAM  RCH.  FLOW INTO     FLOW TO   FLOW OUT OF   OVRLND.     DIRECT     STREAM       STREAM     STREAM     STREAM   STREAMBED  STREAMBED
                SEG.NO.  NO.  STRM. RCH.    AQUIFER    STRM. RCH.    RUNOFF     PRECIP       ET          HEAD       DEPTH      WIDTH   CONDCTNC.   GRADIENT

   1    1    1     1     1    1.9000E+01  2.1427E-01   1.8786E+01  0.000E+00  0.000E+00  0.000E+00  1.09413E+03  1.082E+00  1.166E+01  5.249E-02  1.361E+00
   1    2    2     1     2    1.8786E+01  3.3054E-01   1.8455E+01  0.000E+00  0.000E+00  0.000E+00  1.08914E+03  1.077E+00  1.158E+01  8.107E-02  1.359E+00
   1    3    3     1     3    1.8455E+01  2.8064E-01   1.8175E+01  0.000E+00  0.000E+00  0.000E+00  1.08349E+03  1.072E+00  1.149E+01  6.892E-02  1.357E+00
   1    3    4     1     4    1.8175E+01  2.5740E-01   1.7917E+01  0.000E+00  0.000E+00  0.000E+00  1.07848E+03  1.068E+00  1.140E+01  6.328E-02  1.356E+00
   1    4    5     2     1    1.5917E+01  3.0542E-01   1.5612E+01  0.000E+00  0.000E+00  0.000E+00  1.07285E+03  9.157E-01  1.200E+01  7.800E-02  1.305E+00
   1    5    6     2     2    1.5612E+01  2.3438E-01   1.5377E+01  0.000E+00  0.000E+00  0.000E+00  1.06742E+03  9.063E-01  1.200E+01  6.000E-02  1.302E+00
   1    6    6     2     3    1.5377E+01  2.3388E-01   1.5143E+01  0.000E+00  0.000E+00  0.000E+00  1.06269E+03  8.980E-01  1.200E+01  6.000E-02  1.299E+00
   1    7    6     2     4    1.5143E+01  2.3338E-01   1.4910E+01  0.000E+00  0.000E+00  0.000E+00  1.05797E+03  8.897E-01  1.200E+01  6.000E-02  1.297E+00
   1    8    6     2     5    1.4910E+01  2.3289E-01   1.4677E+01  0.000E+00  0.000E+00  0.000E+00  1.05324E+03  8.814E-01  1.200E+01  6.000E-02  1.294E+00
   1    3    5     3     1    2.0000E+00  2.8252E-01   1.7175E+00  0.000E+00  0.000E+00  0.000E+00  1.07555E+03  1.909E+00  9.636E+00  7.227E-02  1.955E+00
   1    3    6     3     2    1.7175E+00  2.4905E-01   1.4684E+00  0.000E+00  0.000E+00  0.000E+00  1.07264E+03  1.727E+00  8.909E+00  6.682E-02  1.864E+00
   1    3    7     3     3    1.4684E+00  1.9718E-01   1.2712E+00  0.000E+00  0.000E+00  0.000E+00  1.06987E+03  1.555E+00  8.218E+00  5.547E-02  1.777E+00
   1    4    8     3     4    1.2712E+00  2.2567E-01   1.0456E+00  0.000E+00  0.000E+00  0.000E+00  1.06682E+03  1.364E+00  7.455E+00  6.709E-02  1.682E+00
   1    5    8     3     5    1.0456E+00  1.5790E-01   8.8768E-01  0.000E+00  0.000E+00  0.000E+00  1.06362E+03  1.164E+00  6.655E+00  4.991E-02  1.582E+00
   1    6    8     3     6    8.8768E-01  5.5980E-02   8.3170E-01  0.000E+00  0.000E+00  0.000E+00  1.06158E+03  1.036E+00  6.145E+00  1.844E-02  1.518E+00
   1    5   10     4     1    1.0000E+01  9.0919E-02   9.9091E+00  0.000E+00  0.000E+00  0.000E+00  1.07836E+03  6.368E-01  1.000E+01  2.500E-02  1.212E+00
   1    5    9     4     2    9.9091E+00  1.8158E-01   9.7275E+00  0.000E+00  0.000E+00  0.000E+00  1.07154E+03  6.315E-01  1.000E+01  5.000E-02  1.211E+00
   1    6    8     4     3    9.7275E+00  1.2689E-01   9.6006E+00  0.000E+00  0.000E+00  0.000E+00  1.06381E+03  6.256E-01  1.000E+01  3.500E-02  1.209E+00
   1    6    8     5     1    1.0432E+01  2.2686E-01   1.0205E+01  0.000E+00  0.000E+00  0.000E+00  1.05868E+03  6.790E-01  1.542E+01  6.166E-02  1.226E+00
   1    7    7     5     2    1.0205E+01  2.7894E-01   9.9265E+00  0.000E+00  0.000E+00  0.000E+00  1.05417E+03  6.732E-01  1.519E+01  7.594E-02  1.224E+00
   1    8    7     5     3    9.9265E+00  1.9221E-01   9.7343E+00  0.000E+00  0.000E+00  0.000E+00  1.04992E+03  6.676E-01  1.497E+01  5.241E-02  1.223E+00
   1    8    6     5     4    9.7343E+00  1.3577E-01   9.5985E+00  0.000E+00  0.000E+00  0.000E+00  1.04691E+03  6.637E-01  1.482E+01  3.706E-02  1.221E+00
   1    9    6     6     1    2.4276E+01  2.5176E-01   2.4024E+01  0.000E+00  0.000E+00  0.000E+00  1.04392E+03  1.196E+00  1.200E+01  6.000E-02  1.399E+00
   1   10    7     6     2    2.4024E+01  2.5131E-01   2.3773E+01  0.000E+00  0.000E+00  0.000E+00  1.03937E+03  1.188E+00  1.200E+01  6.000E-02  1.396E+00
   1   11    7     6     3    2.3773E+01  2.5086E-01   2.3522E+01  0.000E+00  0.000E+00  0.000E+00  1.03482E+03  1.181E+00  1.200E+01  6.000E-02  1.394E+00
   1   12    7     6     4    2.3522E+01  2.5041E-01   2.3271E+01  0.000E+00  0.000E+00  0.000E+00  1.03026E+03  1.173E+00  1.200E+01  6.000E-02  1.391E+00
   1   13    7     6     5    2.3271E+01  9.4046E-03   2.3262E+01  0.000E+00  0.000E+00  0.000E+00  1.02708E+03  1.170E+00  1.200E+01  2.400E-02  1.306E-01
   1   14    9     7     1    1.5000E+02  1.3630E+00   1.4864E+02  0.000E+00  0.000E+00  0.000E+00  1.03987E+03  2.288E+00  5.529E+01  5.593E-01  8.123E-01
   1   13    8     7     2    1.4864E+02  1.9461E+00   1.4669E+02  0.000E+00  0.000E+00  0.000E+00  1.03478E+03  2.279E+00  5.525E+01  6.148E-01  1.055E+00
   1   13    7     7     3    1.4669E+02  1.6761E+00   1.4501E+02  0.000E+00  0.000E+00  0.000E+00  1.02969E+03  2.269E+00  5.521E+01  5.584E-01  1.001E+00
   1   13    6     8     1    1.6828E+02  1.1172E+00   1.6716E+02  0.000E+00  0.000E+00  0.000E+00  1.02481E+03  2.937E+00  4.259E+01  4.340E-01  8.580E-01
   1   13    5     8     2    1.6716E+02  3.6106E-01   1.6680E+02  0.000E+00  0.000E+00  0.000E+00  1.01856E+03  2.932E+00  4.252E+01  4.333E-01  2.778E-01
   1   13    4     8     3    1.6680E+02 -1.8074E+00   1.6861E+02  0.000E+00  0.000E+00  0.000E+00  1.01231E+03  2.937E+00  4.259E+01  4.340E+00 -1.388E-01
   1   13    3     8     4    1.6861E+02 -3.3743E+00   1.7198E+02  0.000E+00  0.000E+00  0.000E+00  1.00608E+03  2.954E+00  4.283E+01  4.365E+00 -2.577E-01
   1   13    2     8     5    1.7198E+02 -2.5072E+00   1.7449E+02  0.000E+00  0.000E+00  0.000E+00  9.99848E+02  2.973E+00  4.311E+01  4.393E+00 -1.902E-01
   1   13    1     8     6    1.7449E+02 -1.9643E+00   1.7645E+02  0.000E+00  0.000E+00  0.000E+00  9.94862E+02  2.987E+00  4.332E+01  2.649E+00 -2.472E-01





UNSATURATED ZONE PACKAGE VOLUMETRIC BUDGET FOR  TIME STEP    30 STRESS PERIOD   39
  ------------------------------------------------------------------------------



     CUMULATIVE VOLUMES      L**3       RATES FOR THIS TIME STEP      L**3/T
     ------------------                 ------------------------

           IN:                                      IN:
           ---                                      ---
        INFILTRATION =  1635715992.9006          INFILTRATION =           4.4075

          OUT:                                     OUT:
          ----                                     ----
              UZF ET =  1503576641.4427                UZF ET =           0.7250
        UZF RECHARGE =      979679.7641          UZF RECHARGE =           0.0414

            IN - OUT =   131159671.6938              IN - OUT =           3.6411

          STORAGE:                                 STORAGE:
          --------                                 --------
      STORAGE CHANGE =   131161304.1026        STORAGE CHANGE =           3.6411

 PERCENT DISCREPANCY IS DIFFERENCE BETWEEN IN-OUT MINUS CHANGE IN STORAGE
 DIVIDED BY THE AVERAGE OF IN AND OUT TIMES 100

 PERCENT DISCREPANCY =          -0.00     PERCENT DISCREPANCY =           0.00






1
  VOLUMETRIC BUDGET FOR ENTIRE MODEL AT END OF TIME STEP   30, STRESS PERIOD  39
  ------------------------------------------------------------------------------

     CUMULATIVE VOLUMES      L**3       RATES FOR THIS TIME STEP      L**3/T
     ------------------                 ------------------------

           IN:                                      IN:
           ---                                      ---
               AG WELLS  =  1195158016.0000                 AG WELLS  =           0.0000
      DIVERSION SEGMENTS =           0.0000        DIVERSION SEGMENTS =           0.0000
           GW IRRIGATION =           0.0000             GW IRRIGATION =           0.0000
           SW IRRIGATION =           0.0000             SW IRRIGATION =           0.0000
        SYSTEM LOSSES GW =           0.0000          SYSTEM LOSSES GW =           0.0000
        SYSTEM LOSSES SW =           0.0000          SYSTEM LOSSES SW =           0.0000

                TOTAL IN =  1195158016.0000                  TOTAL IN =           0.0000

          OUT:                                     OUT:
          ----                                     ----
               AG WELLS  =           0.0000                 AG WELLS  =           0.0000
      DIVERSION SEGMENTS =           0.0000        DIVERSION SEGMENTS =           0.0000
           GW IRRIGATION =  1195158016.0000             GW IRRIGATION =           0.0000
           SW IRRIGATION =           0.0000             SW IRRIGATION =           0.0000
        SYSTEM LOSSES GW =           0.0000          SYSTEM LOSSES GW =           0.0000
        SYSTEM LOSSES SW =           0.0000          SYSTEM LOSSES SW =           0.0000

               TOTAL OUT =  1195158016.0000                 TOTAL OUT =           0.0000

                IN - OUT =           0.0000                  IN - OUT =           0.0000

     PERCENT DISCREPANCY =           0.00         PERCENT DISCREPANCY =           0.00



1
  VOLUMETRIC BUDGET FOR ENTIRE MODEL AT END OF TIME STEP   30, STRESS PERIOD  39
  ------------------------------------------------------------------------------

     CUMULATIVE VOLUMES      L**3       RATES FOR THIS TIME STEP      L**3/T
     ------------------                 ------------------------

           IN:                                      IN:
           ---                                      ---
             STORAGE     =  1670556416.0000               STORAGE     =           5.0033
       CONSTANT HEAD     =           0.0000         CONSTANT HEAD     =           0.0000
     HEAD DEP BOUNDS     =    28599656.0000       HEAD DEP BOUNDS     =           0.2876
      STREAM LEAKAGE     =  1224251776.0000        STREAM LEAKAGE     =          12.2014
        UZF RECHARGE     =      979679.7500          UZF RECHARGE     =       4.1384E-02
               GW ET     =           0.0000                 GW ET     =           0.0000
     SURFACE LEAKAGE     =           0.0000       SURFACE LEAKAGE     =           0.0000
           AG WELLS      =           0.0000             AG WELLS      =           0.0000

                TOTAL IN =  2924387584.0000                  TOTAL IN =          17.5336

          OUT:                                     OUT:
          ----                                     ----
             STORAGE     =   658677504.0000               STORAGE     =           7.5924
       CONSTANT HEAD     =           0.0000         CONSTANT HEAD     =           0.0000
     HEAD DEP BOUNDS     =    29233742.0000       HEAD DEP BOUNDS     =           0.2890
      STREAM LEAKAGE     =  1024002240.0000        STREAM LEAKAGE     =           9.6531
        UZF RECHARGE     =           0.0000          UZF RECHARGE     =           0.0000
               GW ET     =    17319432.0000                 GW ET     =           0.0000
     SURFACE LEAKAGE     =           0.0000       SURFACE LEAKAGE     =           0.0000
           AG WELLS      =  1195158016.0000             AG WELLS      =           0.0000

               TOTAL OUT =  2924390912.0000                 TOTAL OUT =          17.5344

                IN - OUT =       -3328.0000                  IN - OUT =      -7.4959E-04

     PERCENT DISCREPANCY =          -0.00         PERCENT DISCREPANCY =          -0.00






         TIME SUMMARY AT END OF TIME STEP   30 IN STRESS PERIOD   39
                    SECONDS     MINUTES      HOURS       DAYS        YEARS
                    -----------------------------------------------------------
   TIME STEP LENGTH  87667.      1461.1      24.352      1.0147     2.77799E-03
 STRESS PERIOD TIME 2.63000E+06  43833.      730.56      30.440     8.33397E-02
         TOTAL TIME 1.00026E+08 1.66710E+06  27785.      1157.7      3.1696    
1
1
                            STRESS PERIOD NO.   40, LENGTH =   2630000.    
                            -----------------------------------------------

                              NUMBER OF TIME STEPS =    30

                               MULTIPLIER FOR DELT =     1.000

                            INITIAL TIME STEP SIZE =   87666.66    

 REUSING NON-PARAMETER GHB CELLS FROM LAST STRESS PERIOD

      2 GHB CELLS

 REUSING STREAM SEGMENT DATA FROM LAST STRESS PERIOD



            AREAL INFILTRATION RATE
 READING ON UNIT   19 WITH FORMAT: (10F4.0)            

            1           2           3           4           5           6           7           8           9          10
 ........................................................................................................................
   1   1.2000E-09   0.000       0.000       0.000       0.000       0.000       0.000       0.000       0.000       0.000    
   2   2.1000E-09  2.0000E-09  8.0000E-10  8.5000E-09   0.000       0.000       0.000       0.000       0.000       0.000    
   3   5.0000E-10  1.1000E-09  8.8000E-09  5.5000E-09   0.000       0.000       0.000       0.000       0.000       0.000    
   4   8.5000E-09  1.1000E-09  1.1000E-09  1.1000E-09  2.0000E-09   0.000       0.000       0.000       0.000       0.000    
   5   8.5000E-09  1.1000E-09  1.1000E-09  1.1000E-09  1.1000E-09   0.000       0.000       0.000       0.000       0.000    
   6   8.5000E-09  5.2000E-09  2.1000E-09  1.1000E-09  1.5000E-09   0.000       0.000       0.000       0.000       0.000    
   7   8.5000E-09  5.2000E-09  2.1000E-09  1.2000E-09  2.0000E-09   0.000       0.000       0.000       0.000       0.000    
   8   5.0000E-10  5.2000E-09  2.1000E-09  1.2000E-09  5.0000E-09   0.000       0.000       0.000       0.000       0.000    
   9   5.0000E-10  5.2000E-09  2.1000E-09  1.2000E-09  5.0000E-09   0.000       0.000       0.000       0.000       0.000    
  10   5.0000E-10  5.2000E-09  2.1000E-09  1.2000E-09  5.8000E-09   0.000       0.000       0.000       0.000       0.000    
  11   1.0000E-10  1.1000E-09  1.1000E-09  1.2000E-09  5.0000E-09   0.000       0.000       0.000       0.000       0.000    
  12   1.1000E-09  1.1000E-09  1.1000E-09  1.1000E-09  2.0000E-09   0.000       0.000       0.000       0.000       0.000    
  13   1.1000E-09  2.2000E-09  2.2000E-09  2.1000E-09  1.0000E-09   0.000       0.000       0.000       0.000       0.000    
  14   2.0000E-10  5.5000E-09  5.5000E-09  5.2000E-09  1.0000E-09   0.000       0.000       0.000       0.000       0.000    
  15    0.000      8.8000E-09  8.8000E-09   0.000       0.000       0.000       0.000       0.000       0.000       0.000    

                  ET RATE =  5.000000E-10

 USING ET EXTINCTION DEPTH FROM PREVIOUS STRESS PERIOD. CURRENT PERIOD IS:      40

 USING EXTINCTION WATER CONTENT FROM PREVIOUS STRESS PERIOD. CURRENT PERIOD IS:      40

 USING AIR ENTRY PRESSURE FROM PREVIOUS STRESS PERIOD. CURRENT PERIOD IS:      40

 USING ROOT PRESSURE HEAD FROM PREVIOUS STRESS PERIOD. CURRENT PERIOD IS:      40

 USING ROOT ACTIVITY FROM PREVIOUS STRESS PERIOD. CURRENT PERIOD IS:      40

 PROCESSING AG STRESS PERIOD DATA

 READING AG STRESS PERIOD DATA

 READING IRRIGATION WELL

 END PROCESSING AG STRESS PERIOD DATA OPTIONS
 
 SOLVING FOR HEAD 
                                                   Max.-Head-Change                         Max.-Flux-Residual
  Residual-Control   Outer-Iter.   Inner-Iter.     Column Row Layer    Maximum-Head-Change  Column Row Layer    Maximum-Flux-Residual          L2-NORM 
          0                 1           2             4    7     1       0.1381718459E-01       4    7    1         0.7237009626E+00      0.1912676914E+01
          0                 2           2             4    7     1      -0.1344038825E-02       4    7    1        -0.7237033390E-01      0.1912681444E+00
          0                 3           1             4    7     1       0.9152402954E-04       4    7    1         0.5065923305E-02      0.1338882827E-01

    ------------------------------------------------
       NWT REQUIRED            3 OUTER ITERATIONS 
       AND A TOTAL OF          5 INNER ITERATIONS.
    ------------------------------------------------

 NO OUTPUT CONTROL FOR STRESS PERIOD   40   TIME STEP    1
 
 SOLVING FOR HEAD 
                                                   Max.-Head-Change                         Max.-Flux-Residual
  Residual-Control   Outer-Iter.   Inner-Iter.     Column Row Layer    Maximum-Head-Change  Column Row Layer    Maximum-Flux-Residual          L2-NORM 
          0                 1           2             4    7     1       0.1370730926E-01       4    7    1         0.7179167561E+00      0.1901363712E+01
          0                 2           2             4    7     1      -0.1333350882E-02       4    7    1        -0.7179190856E-01      0.1901368483E+00
          0                 3           1             4    7     1       0.9079622101E-04       4    7    1         0.5025433563E-02      0.1330964502E-01

    ------------------------------------------------
       NWT REQUIRED            3 OUTER ITERATIONS 
       AND A TOTAL OF          5 INNER ITERATIONS.
    ------------------------------------------------

 NO OUTPUT CONTROL FOR STRESS PERIOD   40   TIME STEP    2
 
 SOLVING FOR HEAD 
                                                   Max.-Head-Change                         Max.-Flux-Residual
  Residual-Control   Outer-Iter.   Inner-Iter.     Column Row Layer    Maximum-Head-Change  Column Row Layer    Maximum-Flux-Residual          L2-NORM 
          0                 1           2             4    7     1       0.1359881364E-01       4    7    1         0.7122052321E+00      0.1890184319E+01
          0                 2           2             4    7     1      -0.1322797149E-02       4    7    1        -0.7122075159E-01      0.1890189452E+00
          0                 3           1             4    7     1       0.9007755150E-04       4    7    1         0.4985452605E-02      0.1323138077E-01

    ------------------------------------------------
       NWT REQUIRED            3 OUTER ITERATIONS 
       AND A TOTAL OF          5 INNER ITERATIONS.
    ------------------------------------------------

 NO OUTPUT CONTROL FOR STRESS PERIOD   40   TIME STEP    3
 
 SOLVING FOR HEAD 
                                                   Max.-Head-Change                         Max.-Flux-Residual
  Residual-Control   Outer-Iter.   Inner-Iter.     Column Row Layer    Maximum-Head-Change  Column Row Layer    Maximum-Flux-Residual          L2-NORM 
          0                 1           2             4    7     1       0.1349180121E-01       4    7    1         0.7065725633E+00      0.1879130729E+01
          0                 2           2             4    7     1      -0.1312387691E-02       4    7    1        -0.7065748025E-01      0.1879136189E+00
          0                 3           1             4    7     1       0.8936870676E-04       4    7    1         0.4946023624E-02      0.1315406004E-01

    ------------------------------------------------
       NWT REQUIRED            3 OUTER ITERATIONS 
       AND A TOTAL OF          5 INNER ITERATIONS.
    ------------------------------------------------

 NO OUTPUT CONTROL FOR STRESS PERIOD   40   TIME STEP    4
 
 SOLVING FOR HEAD 
                                                   Max.-Head-Change                         Max.-Flux-Residual
  Residual-Control   Outer-Iter.   Inner-Iter.     Column Row Layer    Maximum-Head-Change  Column Row Layer    Maximum-Flux-Residual          L2-NORM 
          0                 1           2             4    7     1       0.1338610671E-01       4    7    1         0.7010094758E+00      0.1868202513E+01
          0                 2           2             4    7     1      -0.1302106434E-02       4    7    1        -0.7010116714E-01      0.1868208402E+00
          0                 3           1             4    7     1       0.8866859196E-04       4    7    1         0.4907081751E-02      0.1307755704E-01

    ------------------------------------------------
       NWT REQUIRED            3 OUTER ITERATIONS 
       AND A TOTAL OF          5 INNER ITERATIONS.
    ------------------------------------------------

 NO OUTPUT CONTROL FOR STRESS PERIOD   40   TIME STEP    5
 
 SOLVING FOR HEAD 
                                                   Max.-Head-Change                         Max.-Flux-Residual
  Residual-Control   Outer-Iter.   Inner-Iter.     Column Row Layer    Maximum-Head-Change  Column Row Layer    Maximum-Flux-Residual          L2-NORM 
          0                 1           2             4    7     1       0.1328170477E-01       4    7    1         0.6955147202E+00      0.1857367422E+01
          0                 2           2             4    7     1      -0.1291950909E-02       4    7    1        -0.6955168733E-01      0.1857370015E+00
          0                 3           1             4    7     1       0.8797703893E-04       4    7    1         0.4868618177E-02      0.1300191450E-01

    ------------------------------------------------
       NWT REQUIRED            3 OUTER ITERATIONS 
       AND A TOTAL OF          5 INNER ITERATIONS.
    ------------------------------------------------

 NO OUTPUT CONTROL FOR STRESS PERIOD   40   TIME STEP    6
 
 SOLVING FOR HEAD 
                                                   Max.-Head-Change                         Max.-Flux-Residual
  Residual-Control   Outer-Iter.   Inner-Iter.     Column Row Layer    Maximum-Head-Change  Column Row Layer    Maximum-Flux-Residual          L2-NORM 
          0                 1           2             4    7     1       0.1317870659E-01       4    7    1         0.6900943015E+00      0.1846863827E+01
          0                 2           2             4    7     1      -0.1281931933E-02       4    7    1        -0.6900964132E-01      0.1846936877E+00
          0                 3           1             4    7     1       0.8729478397E-04       4    7    1         0.4830674977E-02      0.1293392878E-01

    ------------------------------------------------
       NWT REQUIRED            3 OUTER ITERATIONS 
       AND A TOTAL OF          5 INNER ITERATIONS.
    ------------------------------------------------

 NO OUTPUT CONTROL FOR STRESS PERIOD   40   TIME STEP    7
 
 SOLVING FOR HEAD 
                                                   Max.-Head-Change                         Max.-Flux-Residual
  Residual-Control   Outer-Iter.   Inner-Iter.     Column Row Layer    Maximum-Head-Change  Column Row Layer    Maximum-Flux-Residual          L2-NORM 
          0                 1           2             4    7     1       0.1307708191E-01       4    7    1         0.6847466652E+00      0.1836212588E+01
          0                 2           2             4    7     1      -0.1272046563E-02       4    7    1        -0.6847487364E-01      0.1836258754E+00
          0                 3           1             4    7     1       0.8662162791E-04       4    7    1         0.4793241269E-02      0.1285726033E-01

    ------------------------------------------------
       NWT REQUIRED            3 OUTER ITERATIONS 
       AND A TOTAL OF          5 INNER ITERATIONS.
    ------------------------------------------------

 NO OUTPUT CONTROL FOR STRESS PERIOD   40   TIME STEP    8
 
 SOLVING FOR HEAD 
                                                   Max.-Head-Change                         Max.-Flux-Residual
  Residual-Control   Outer-Iter.   Inner-Iter.     Column Row Layer    Maximum-Head-Change  Column Row Layer    Maximum-Flux-Residual          L2-NORM 
          0                 1           2             4    7     1       0.1297653389E-01       4    7    1         0.6794556021E+00      0.1825695902E+01
          0                 2           2             4    7     1      -0.1262265923E-02       4    7    1        -0.6794576338E-01      0.1825724088E+00
          0                 3           1             4    7     1       0.8595560293E-04       4    7    1         0.4756203570E-02      0.1278245516E-01

    ------------------------------------------------
       NWT REQUIRED            3 OUTER ITERATIONS 
       AND A TOTAL OF          5 INNER ITERATIONS.
    ------------------------------------------------

 NO OUTPUT CONTROL FOR STRESS PERIOD   40   TIME STEP    9
 
 SOLVING FOR HEAD 
                                                   Max.-Head-Change                         Max.-Flux-Residual
  Residual-Control   Outer-Iter.   Inner-Iter.     Column Row Layer    Maximum-Head-Change  Column Row Layer    Maximum-Flux-Residual          L2-NORM 
          0                 1           2             4    7     1       0.1287744810E-01       4    7    1         0.6742423230E+00      0.1815311335E+01
          0                 2           2             4    7     1      -0.1252627521E-02       4    7    1        -0.6742443164E-01      0.1815326989E+00
          0                 3           1             4    7     1       0.8529926417E-04       4    7    1         0.4719710370E-02      0.1270889544E-01

    ------------------------------------------------
       NWT REQUIRED            3 OUTER ITERATIONS 
       AND A TOTAL OF          5 INNER ITERATIONS.
    ------------------------------------------------

 NO OUTPUT CONTROL FOR STRESS PERIOD   40   TIME STEP   10
 
 SOLVING FOR HEAD 
                                                   Max.-Head-Change                         Max.-Flux-Residual
  Residual-Control   Outer-Iter.   Inner-Iter.     Column Row Layer    Maximum-Head-Change  Column Row Layer    Maximum-Flux-Residual          L2-NORM 
          0                 1           2             4    7     1       0.1277952499E-01       4    7    1         0.6690902169E+00      0.1805055087E+01
          0                 2           2             4    7     1      -0.1243102216E-02       4    7    1        -0.6690921726E-01      0.1805063437E+00
          0                 3           1             4    7     1       0.8465062663E-04       4    7    1         0.4683645377E-02      0.1263651923E-01

    ------------------------------------------------
       NWT REQUIRED            3 OUTER ITERATIONS 
       AND A TOTAL OF          5 INNER ITERATIONS.
    ------------------------------------------------

 NO OUTPUT CONTROL FOR STRESS PERIOD   40   TIME STEP   11
 
 SOLVING FOR HEAD 
                                                   Max.-Head-Change                         Max.-Flux-Residual
  Residual-Control   Outer-Iter.   Inner-Iter.     Column Row Layer    Maximum-Head-Change  Column Row Layer    Maximum-Flux-Residual          L2-NORM 
          0                 1           2             4    7     1       0.1268274106E-01       4    7    1         0.6639983932E+00      0.1794918997E+01
          0                 2           2             4    7     1      -0.1233687725E-02       4    7    1        -0.6640003122E-01      0.1794922809E+00
          0                 3           1             4    7     1       0.8400953507E-04       4    7    1         0.4648002368E-02      0.1256515010E-01

    ------------------------------------------------
       NWT REQUIRED            3 OUTER ITERATIONS 
       AND A TOTAL OF          5 INNER ITERATIONS.
    ------------------------------------------------

 NO OUTPUT CONTROL FOR STRESS PERIOD   40   TIME STEP   12
 
 SOLVING FOR HEAD 
                                                   Max.-Head-Change                         Max.-Flux-Residual
  Residual-Control   Outer-Iter.   Inner-Iter.     Column Row Layer    Maximum-Head-Change  Column Row Layer    Maximum-Flux-Residual          L2-NORM 
          0                 1           2             4    7     1       0.1258721078E-01       4    7    1         0.6589729558E+00      0.1784893937E+01
          0                 2           2             4    7     1      -0.1224395181E-02       4    7    1        -0.6589748392E-01      0.1784895542E+00
          0                 3           1             4    7     1       0.8337674837E-04       4    7    1         0.4612824095E-02      0.1249470790E-01

    ------------------------------------------------
       NWT REQUIRED            3 OUTER ITERATIONS 
       AND A TOTAL OF          5 INNER ITERATIONS.
    ------------------------------------------------

 NO OUTPUT CONTROL FOR STRESS PERIOD   40   TIME STEP   13
 
 SOLVING FOR HEAD 
                                                   Max.-Head-Change                         Max.-Flux-Residual
  Residual-Control   Outer-Iter.   Inner-Iter.     Column Row Layer    Maximum-Head-Change  Column Row Layer    Maximum-Flux-Residual          L2-NORM 
          0                 1           2             4    7     1       0.1249277416E-01       4    7    1         0.6540051960E+00      0.1774984123E+01
          0                 2           2             4    7     1      -0.1215209020E-02       4    7    1        -0.6540070442E-01      0.1774984741E+00
          0                 3           1             4    7     1       0.8275120505E-04       4    7    1         0.4578049547E-02      0.1242514929E-01

    ------------------------------------------------
       NWT REQUIRED            3 OUTER ITERATIONS 
       AND A TOTAL OF          5 INNER ITERATIONS.
    ------------------------------------------------

 NO OUTPUT CONTROL FOR STRESS PERIOD   40   TIME STEP   14
 
 SOLVING FOR HEAD 
                                                   Max.-Head-Change                         Max.-Flux-Residual
  Residual-Control   Outer-Iter.   Inner-Iter.     Column Row Layer    Maximum-Head-Change  Column Row Layer    Maximum-Flux-Residual          L2-NORM 
          0                 1           2             4    7     1       0.1239968317E-01       4    7    1         0.6491087836E+00      0.1765190240E+01
          0                 2           2             4    7     1      -0.1206153755E-02       4    7    1        -0.6491105977E-01      0.1765191031E+00
          0                 3           1             4    7     1       0.8213457544E-04       4    7    1         0.4543774428E-02      0.1235651074E-01

    ------------------------------------------------
       NWT REQUIRED            3 OUTER ITERATIONS 
       AND A TOTAL OF          5 INNER ITERATIONS.
    ------------------------------------------------

 NO OUTPUT CONTROL FOR STRESS PERIOD   40   TIME STEP   15
 
 SOLVING FOR HEAD 
                                                   Max.-Head-Change                         Max.-Flux-Residual
  Residual-Control   Outer-Iter.   Inner-Iter.     Column Row Layer    Maximum-Head-Change  Column Row Layer    Maximum-Flux-Residual          L2-NORM 
          0                 1           2             4    7     1       0.1230750049E-01       4    7    1         0.6442601749E+00      0.1755500882E+01
          0                 2           2             4    7     1      -0.1197186843E-02       4    7    1        -0.6442619556E-01      0.1755502637E+00
          0                 3           1             4    7     1       0.8152396243E-04       4    7    1         0.4509833944E-02      0.1228861631E-01

    ------------------------------------------------
       NWT REQUIRED            3 OUTER ITERATIONS 
       AND A TOTAL OF          5 INNER ITERATIONS.
    ------------------------------------------------

 NO OUTPUT CONTROL FOR STRESS PERIOD   40   TIME STEP   16
 
 SOLVING FOR HEAD 
                                                   Max.-Head-Change                         Max.-Flux-Residual
  Residual-Control   Outer-Iter.   Inner-Iter.     Column Row Layer    Maximum-Head-Change  Column Row Layer    Maximum-Flux-Residual          L2-NORM 
          0                 1           2             4    7     1       0.1221662321E-01       4    7    1         0.6394806256E+00      0.1745916003E+01
          0                 2           2             4    7     1      -0.1188346915E-02       4    7    1        -0.6394823739E-01      0.1745919148E+00
          0                 3           1             4    7     1       0.8092199662E-04       4    7    1         0.4476376901E-02      0.1222150610E-01

    ------------------------------------------------
       NWT REQUIRED            3 OUTER ITERATIONS 
       AND A TOTAL OF          5 INNER ITERATIONS.
    ------------------------------------------------

 NO OUTPUT CONTROL FOR STRESS PERIOD   40   TIME STEP   17
 
 SOLVING FOR HEAD 
                                                   Max.-Head-Change                         Max.-Flux-Residual
  Residual-Control   Outer-Iter.   Inner-Iter.     Column Row Layer    Maximum-Head-Change  Column Row Layer    Maximum-Flux-Residual          L2-NORM 
          0                 1           2             4    7     1       0.1212674977E-01       4    7    1         0.6347541159E+00      0.1736438510E+01
          0                 2           2             4    7     1      -0.1179604632E-02       4    7    1        -0.6347558323E-01      0.1736443093E+00
          0                 3           1             4    7     1       0.8032668015E-04       4    7    1         0.4443291125E-02      0.1215515989E-01

    ------------------------------------------------
       NWT REQUIRED            3 OUTER ITERATIONS 
       AND A TOTAL OF          5 INNER ITERATIONS.
    ------------------------------------------------

 NO OUTPUT CONTROL FOR STRESS PERIOD   40   TIME STEP   18
 
 SOLVING FOR HEAD 
                                                   Max.-Head-Change                         Max.-Flux-Residual
  Residual-Control   Outer-Iter.   Inner-Iter.     Column Row Layer    Maximum-Head-Change  Column Row Layer    Maximum-Flux-Residual          L2-NORM 
          0                 1           2             4    7     1       0.1203786246E-01       4    7    1         0.6300796528E+00      0.1727060646E+01
          0                 2           2             4    7     1      -0.1170958275E-02       4    7    1        -0.6300813382E-01      0.1727066943E+00
          0                 3           1             4    7     1       0.7973789539E-04       4    7    1         0.4410569683E-02      0.1208954706E-01

    ------------------------------------------------
       NWT REQUIRED            3 OUTER ITERATIONS 
       AND A TOTAL OF          5 INNER ITERATIONS.
    ------------------------------------------------

 NO OUTPUT CONTROL FOR STRESS PERIOD   40   TIME STEP   19
 
 SOLVING FOR HEAD 
                                                   Max.-Head-Change                         Max.-Flux-Residual
  Residual-Control   Outer-Iter.   Inner-Iter.     Column Row Layer    Maximum-Head-Change  Column Row Layer    Maximum-Flux-Residual          L2-NORM 
          0                 1           2             4    7     1       0.1195021740E-01       4    7    1         0.6254709637E+00      0.1717786022E+01
          0                 2           2             4    7     1      -0.1162432755E-02       4    7    1        -0.6254726186E-01      0.1717793957E+00
          0                 3           1             4    7     1       0.7915733953E-04       4    7    1         0.4378308654E-02      0.1202465262E-01

    ------------------------------------------------
       NWT REQUIRED            3 OUTER ITERATIONS 
       AND A TOTAL OF          5 INNER ITERATIONS.
    ------------------------------------------------

 NO OUTPUT CONTROL FOR STRESS PERIOD   40   TIME STEP   20
 
 SOLVING FOR HEAD 
                                                   Max.-Head-Change                         Max.-Flux-Residual
  Residual-Control   Outer-Iter.   Inner-Iter.     Column Row Layer    Maximum-Head-Change  Column Row Layer    Maximum-Flux-Residual          L2-NORM 
          0                 1           2             4    7     1       0.1186351478E-01       4    7    1         0.6209120381E+00      0.1708607286E+01
          0                 2           2             4    7     1      -0.1153998910E-02       4    7    1        -0.6209136634E-01      0.1708617724E+00
          0                 3           1             4    7     1       0.7858302639E-04       4    7    1         0.4346395989E-02      0.1196052671E-01

    ------------------------------------------------
       NWT REQUIRED            3 OUTER ITERATIONS 
       AND A TOTAL OF          5 INNER ITERATIONS.
    ------------------------------------------------

 NO OUTPUT CONTROL FOR STRESS PERIOD   40   TIME STEP   21
 
 SOLVING FOR HEAD 
                                                   Max.-Head-Change                         Max.-Flux-Residual
  Residual-Control   Outer-Iter.   Inner-Iter.     Column Row Layer    Maximum-Head-Change  Column Row Layer    Maximum-Flux-Residual          L2-NORM 
          0                 1           2             4    7     1       0.1177787706E-01       4    7    1         0.6164092990E+00      0.1699530949E+01
          0                 2           2             4    7     1      -0.1145668651E-02       4    7    1        -0.6164108953E-01      0.1699541973E+00
          0                 3           1             4    7     1       0.7801576695E-04       4    7    1         0.4314876619E-02      0.1189691548E-01

    ------------------------------------------------
       NWT REQUIRED            3 OUTER ITERATIONS 
       AND A TOTAL OF          5 INNER ITERATIONS.
    ------------------------------------------------

 NO OUTPUT CONTROL FOR STRESS PERIOD   40   TIME STEP   22
 
 SOLVING FOR HEAD 
                                                   Max.-Head-Change                         Max.-Flux-Residual
  Residual-Control   Outer-Iter.   Inner-Iter.     Column Row Layer    Maximum-Head-Change  Column Row Layer    Maximum-Flux-Residual          L2-NORM 
          0                 1           2             4    7     1       0.1169314712E-01       4    7    1         0.6119544498E+00      0.1690545884E+01
          0                 2           2             4    7     1      -0.1137426697E-02       4    7    1        -0.6119560177E-01      0.1690558317E+00
          0                 3           1             4    7     1       0.7745452078E-04       4    7    1         0.4283692478E-02      0.1183405435E-01

    ------------------------------------------------
       NWT REQUIRED            3 OUTER ITERATIONS 
       AND A TOTAL OF          5 INNER ITERATIONS.
    ------------------------------------------------

 NO OUTPUT CONTROL FOR STRESS PERIOD   40   TIME STEP   23
 
 SOLVING FOR HEAD 
                                                   Max.-Head-Change                         Max.-Flux-Residual
  Residual-Control   Outer-Iter.   Inner-Iter.     Column Row Layer    Maximum-Head-Change  Column Row Layer    Maximum-Flux-Residual          L2-NORM 
          0                 1           2             4    7     1       0.1160944820E-01       4    7    1         0.6075539912E+00      0.1681653646E+01
          0                 2           2             4    7     1      -0.1129285033E-02       4    7    1        -0.6075555313E-01      0.1681667119E+00
          0                 3           1             4    7     1       0.7690010405E-04       4    7    1         0.4252889085E-02      0.1177182682E-01

    ------------------------------------------------
       NWT REQUIRED            3 OUTER ITERATIONS 
       AND A TOTAL OF          5 INNER ITERATIONS.
    ------------------------------------------------

 NO OUTPUT CONTROL FOR STRESS PERIOD   40   TIME STEP   24
 
 SOLVING FOR HEAD 
                                                   Max.-Head-Change                         Max.-Flux-Residual
  Residual-Control   Outer-Iter.   Inner-Iter.     Column Row Layer    Maximum-Head-Change  Column Row Layer    Maximum-Flux-Residual          L2-NORM 
          0                 1           2             4    7     1       0.1152675780E-01       4    7    1         0.6032069888E+00      0.1672854995E+01
          0                 2           2             4    7     1      -0.1121241472E-02       4    7    1        -0.6032085019E-01      0.1672869734E+00
          0                 3           1             4    7     1       0.7635236790E-04       4    7    1         0.4222459911E-02      0.1171028203E-01

    ------------------------------------------------
       NWT REQUIRED            3 OUTER ITERATIONS 
       AND A TOTAL OF          5 INNER ITERATIONS.
    ------------------------------------------------

 NO OUTPUT CONTROL FOR STRESS PERIOD   40   TIME STEP   25
 
 SOLVING FOR HEAD 
                                                   Max.-Head-Change                         Max.-Flux-Residual
  Residual-Control   Outer-Iter.   Inner-Iter.     Column Row Layer    Maximum-Head-Change  Column Row Layer    Maximum-Flux-Residual          L2-NORM 
          0                 1           2             4    7     1       0.1144505721E-01       4    7    1         0.5989122768E+00      0.1664149746E+01
          0                 2           2             4    7     1      -0.1113294193E-02       4    7    1        -0.5989137634E-01      0.1664165605E+00
          0                 3           1             4    7     1       0.7581118832E-04       4    7    1         0.4192396755E-02      0.1164942983E-01

    ------------------------------------------------
       NWT REQUIRED            3 OUTER ITERATIONS 
       AND A TOTAL OF          5 INNER ITERATIONS.
    ------------------------------------------------

 NO OUTPUT CONTROL FOR STRESS PERIOD   40   TIME STEP   26
 
 SOLVING FOR HEAD 
                                                   Max.-Head-Change                         Max.-Flux-Residual
  Residual-Control   Outer-Iter.   Inner-Iter.     Column Row Layer    Maximum-Head-Change  Column Row Layer    Maximum-Flux-Residual          L2-NORM 
          0                 1           2             4    7     1       0.1136419266E-01       4    7    1         0.5946615605E+00      0.1655527318E+01
          0                 2           2             4    7     1      -0.1105428238E-02       4    7    1        -0.5946630213E-01      0.1655543026E+00
          0                 3           1             4    7     1       0.7527554605E-04       4    7    1         0.4162641566E-02      0.1158906435E-01

    ------------------------------------------------
       NWT REQUIRED            3 OUTER ITERATIONS 
       AND A TOTAL OF          5 INNER ITERATIONS.
    ------------------------------------------------

 NO OUTPUT CONTROL FOR STRESS PERIOD   40   TIME STEP   27
 
 SOLVING FOR HEAD 
                                                   Max.-Head-Change                         Max.-Flux-Residual
  Residual-Control   Outer-Iter.   Inner-Iter.     Column Row Layer    Maximum-Head-Change  Column Row Layer    Maximum-Flux-Residual          L2-NORM 
          0                 1           2             4    7     1       0.1128442146E-01       4    7    1         0.5904688395E+00      0.1647002600E+01
          0                 2           2             4    7     1      -0.1097668638E-02       4    7    1        -0.5904702748E-01      0.1647019981E+00
          0                 3           1             4    7     1       0.7474714659E-04       4    7    1         0.4133292350E-02      0.1152940634E-01

    ------------------------------------------------
       NWT REQUIRED            3 OUTER ITERATIONS 
       AND A TOTAL OF          5 INNER ITERATIONS.
    ------------------------------------------------

 NO OUTPUT CONTROL FOR STRESS PERIOD   40   TIME STEP   28
 
 SOLVING FOR HEAD 
                                                   Max.-Head-Change                         Max.-Flux-Residual
  Residual-Control   Outer-Iter.   Inner-Iter.     Column Row Layer    Maximum-Head-Change  Column Row Layer    Maximum-Flux-Residual          L2-NORM 
          0                 1           2             4    7     1       0.1120545162E-01       4    7    1         0.5863181589E+00      0.1638562711E+01
          0                 2           2             4    7     1      -0.1089986989E-02       4    7    1        -0.5863195697E-01      0.1638580590E+00
          0                 3           1             4    7     1       0.7422405499E-04       4    7    1         0.4104237430E-02      0.1147036424E-01

    ------------------------------------------------
       NWT REQUIRED            3 OUTER ITERATIONS 
       AND A TOTAL OF          5 INNER ITERATIONS.
    ------------------------------------------------

 NO OUTPUT CONTROL FOR STRESS PERIOD   40   TIME STEP   29
 
 SOLVING FOR HEAD 
                                                   Max.-Head-Change                         Max.-Flux-Residual
  Residual-Control   Outer-Iter.   Inner-Iter.     Column Row Layer    Maximum-Head-Change  Column Row Layer    Maximum-Flux-Residual          L2-NORM 
          0                 1           2             4    7     1       0.1112740507E-01       4    7    1         0.5822163513E+00      0.1630209010E+01
          0                 2           2             4    7     1      -0.1082395152E-02       4    7    1        -0.5822177376E-01      0.1630227466E+00
          0                 3           1             4    7     1       0.7370707950E-04       4    7    1         0.4075524617E-02      0.1141190258E-01

    ------------------------------------------------
       NWT REQUIRED            3 OUTER ITERATIONS 
       AND A TOTAL OF          5 INNER ITERATIONS.
    ------------------------------------------------

 NO OUTPUT CONTROL FOR STRESS PERIOD   40   TIME STEP   30



 STREAM LISTING     PERIOD     40   STEP       30

 LAYER ROW COL. STREAM  RCH.  FLOW INTO     FLOW TO   FLOW OUT OF   OVRLND.     DIRECT     STREAM       STREAM     STREAM     STREAM   STREAMBED  STREAMBED
                SEG.NO.  NO.  STRM. RCH.    AQUIFER    STRM. RCH.    RUNOFF     PRECIP       ET          HEAD       DEPTH      WIDTH   CONDCTNC.   GRADIENT

   1    1    1     1     1    1.9000E+01  2.1427E-01   1.8786E+01  0.000E+00  0.000E+00  0.000E+00  1.09413E+03  1.082E+00  1.166E+01  5.249E-02  1.361E+00
   1    2    2     1     2    1.8786E+01  3.3054E-01   1.8455E+01  0.000E+00  0.000E+00  0.000E+00  1.08914E+03  1.077E+00  1.158E+01  8.107E-02  1.359E+00
   1    3    3     1     3    1.8455E+01  2.8064E-01   1.8175E+01  0.000E+00  0.000E+00  0.000E+00  1.08349E+03  1.072E+00  1.149E+01  6.892E-02  1.357E+00
   1    3    4     1     4    1.8175E+01  2.5740E-01   1.7917E+01  0.000E+00  0.000E+00  0.000E+00  1.07848E+03  1.068E+00  1.140E+01  6.328E-02  1.356E+00
   1    4    5     2     1    1.5917E+01  3.0542E-01   1.5612E+01  0.000E+00  0.000E+00  0.000E+00  1.07285E+03  9.157E-01  1.200E+01  7.800E-02  1.305E+00
   1    5    6     2     2    1.5612E+01  2.3438E-01   1.5377E+01  0.000E+00  0.000E+00  0.000E+00  1.06742E+03  9.063E-01  1.200E+01  6.000E-02  1.302E+00
   1    6    6     2     3    1.5377E+01  2.3388E-01   1.5143E+01  0.000E+00  0.000E+00  0.000E+00  1.06269E+03  8.980E-01  1.200E+01  6.000E-02  1.299E+00
   1    7    6     2     4    1.5143E+01  2.3338E-01   1.4910E+01  0.000E+00  0.000E+00  0.000E+00  1.05797E+03  8.897E-01  1.200E+01  6.000E-02  1.297E+00
   1    8    6     2     5    1.4910E+01  2.3289E-01   1.4677E+01  0.000E+00  0.000E+00  0.000E+00  1.05324E+03  8.814E-01  1.200E+01  6.000E-02  1.294E+00
   1    3    5     3     1    2.0000E+00  2.8252E-01   1.7175E+00  0.000E+00  0.000E+00  0.000E+00  1.07555E+03  1.909E+00  9.636E+00  7.227E-02  1.955E+00
   1    3    6     3     2    1.7175E+00  2.4905E-01   1.4684E+00  0.000E+00  0.000E+00  0.000E+00  1.07264E+03  1.727E+00  8.909E+00  6.682E-02  1.864E+00
   1    3    7     3     3    1.4684E+00  1.9718E-01   1.2712E+00  0.000E+00  0.000E+00  0.000E+00  1.06987E+03  1.555E+00  8.218E+00  5.547E-02  1.777E+00
   1    4    8     3     4    1.2712E+00  2.2567E-01   1.0456E+00  0.000E+00  0.000E+00  0.000E+00  1.06682E+03  1.364E+00  7.455E+00  6.709E-02  1.682E+00
   1    5    8     3     5    1.0456E+00  1.5790E-01   8.8768E-01  0.000E+00  0.000E+00  0.000E+00  1.06362E+03  1.164E+00  6.655E+00  4.991E-02  1.582E+00
   1    6    8     3     6    8.8768E-01  5.5980E-02   8.3170E-01  0.000E+00  0.000E+00  0.000E+00  1.06158E+03  1.036E+00  6.145E+00  1.844E-02  1.518E+00
   1    5   10     4     1    1.0000E+01  9.0919E-02   9.9091E+00  0.000E+00  0.000E+00  0.000E+00  1.07836E+03  6.368E-01  1.000E+01  2.500E-02  1.212E+00
   1    5    9     4     2    9.9091E+00  1.8158E-01   9.7275E+00  0.000E+00  0.000E+00  0.000E+00  1.07154E+03  6.315E-01  1.000E+01  5.000E-02  1.211E+00
   1    6    8     4     3    9.7275E+00  1.2689E-01   9.6006E+00  0.000E+00  0.000E+00  0.000E+00  1.06381E+03  6.256E-01  1.000E+01  3.500E-02  1.209E+00
   1    6    8     5     1    1.0432E+01  2.2686E-01   1.0205E+01  0.000E+00  0.000E+00  0.000E+00  1.05868E+03  6.790E-01  1.542E+01  6.166E-02  1.226E+00
   1    7    7     5     2    1.0205E+01  2.7894E-01   9.9265E+00  0.000E+00  0.000E+00  0.000E+00  1.05417E+03  6.732E-01  1.519E+01  7.594E-02  1.224E+00
   1    8    7     5     3    9.9265E+00  1.9221E-01   9.7343E+00  0.000E+00  0.000E+00  0.000E+00  1.04992E+03  6.676E-01  1.497E+01  5.241E-02  1.223E+00
   1    8    6     5     4    9.7343E+00  1.3577E-01   9.5985E+00  0.000E+00  0.000E+00  0.000E+00  1.04691E+03  6.637E-01  1.482E+01  3.706E-02  1.221E+00
   1    9    6     6     1    2.4276E+01  2.5176E-01   2.4024E+01  0.000E+00  0.000E+00  0.000E+00  1.04392E+03  1.196E+00  1.200E+01  6.000E-02  1.399E+00
   1   10    7     6     2    2.4024E+01  2.5131E-01   2.3773E+01  0.000E+00  0.000E+00  0.000E+00  1.03937E+03  1.188E+00  1.200E+01  6.000E-02  1.396E+00
   1   11    7     6     3    2.3773E+01  2.5086E-01   2.3522E+01  0.000E+00  0.000E+00  0.000E+00  1.03482E+03  1.181E+00  1.200E+01  6.000E-02  1.394E+00
   1   12    7     6     4    2.3522E+01  2.5041E-01   2.3271E+01  0.000E+00  0.000E+00  0.000E+00  1.03026E+03  1.173E+00  1.200E+01  6.000E-02  1.391E+00
   1   13    7     6     5    2.3271E+01  9.9093E-03   2.3261E+01  0.000E+00  0.000E+00  0.000E+00  1.02708E+03  1.170E+00  1.200E+01  2.400E-02  1.376E-01
   1   14    9     7     1    1.5000E+02  1.3649E+00   1.4864E+02  0.000E+00  0.000E+00  0.000E+00  1.03987E+03  2.288E+00  5.529E+01  5.593E-01  8.135E-01
   1   13    8     7     2    1.4864E+02  1.9529E+00   1.4668E+02  0.000E+00  0.000E+00  0.000E+00  1.03478E+03  2.279E+00  5.525E+01  6.147E-01  1.059E+00
   1   13    7     7     3    1.4668E+02  1.6878E+00   1.4499E+02  0.000E+00  0.000E+00  0.000E+00  1.02969E+03  2.269E+00  5.521E+01  5.584E-01  1.008E+00
   1   13    6     8     1    1.6826E+02  1.1272E+00   1.6713E+02  0.000E+00  0.000E+00  0.000E+00  1.02481E+03  2.937E+00  4.259E+01  4.340E-01  8.658E-01
   1   13    5     8     2    1.6713E+02  3.6844E-01   1.6676E+02  0.000E+00  0.000E+00  0.000E+00  1.01856E+03  2.932E+00  4.252E+01  4.333E-01  2.835E-01
   1   13    4     8     3    1.6676E+02 -1.8106E+00   1.6857E+02  0.000E+00  0.000E+00  0.000E+00  1.01231E+03  2.937E+00  4.259E+01  4.340E+00 -1.391E-01
   1   13    3     8     4    1.6857E+02 -3.3647E+00   1.7194E+02  0.000E+00  0.000E+00  0.000E+00  1.00608E+03  2.954E+00  4.283E+01  4.365E+00 -2.570E-01
   1   13    2     8     5    1.7194E+02 -2.5039E+00   1.7444E+02  0.000E+00  0.000E+00  0.000E+00  9.99848E+02  2.973E+00  4.311E+01  4.393E+00 -1.900E-01
   1   13    1     8     6    1.7444E+02 -1.9632E+00   1.7640E+02  0.000E+00  0.000E+00  0.000E+00  9.94862E+02  2.987E+00  4.331E+01  2.648E+00 -2.471E-01





UNSATURATED ZONE PACKAGE VOLUMETRIC BUDGET FOR  TIME STEP    30 STRESS PERIOD   40
  ------------------------------------------------------------------------------



     CUMULATIVE VOLUMES      L**3       RATES FOR THIS TIME STEP      L**3/T
     ------------------                 ------------------------

           IN:                                      IN:
           ---                                      ---
        INFILTRATION =  1647307717.4587          INFILTRATION =           4.4075

          OUT:                                     OUT:
          ----                                     ----
              UZF ET =  1505483391.3104                UZF ET =           0.7250
        UZF RECHARGE =     1176082.3412          UZF RECHARGE =           0.0800

            IN - OUT =   140648243.8071              IN - OUT =           3.6025

          STORAGE:                                 STORAGE:
          --------                                 --------
      STORAGE CHANGE =   140649876.1436        STORAGE CHANGE =           3.6025

 PERCENT DISCREPANCY IS DIFFERENCE BETWEEN IN-OUT MINUS CHANGE IN STORAGE
 DIVIDED BY THE AVERAGE OF IN AND OUT TIMES 100

 PERCENT DISCREPANCY =          -0.00     PERCENT DISCREPANCY =           0.00






1
  VOLUMETRIC BUDGET FOR ENTIRE MODEL AT END OF TIME STEP   30, STRESS PERIOD  40
  ------------------------------------------------------------------------------

     CUMULATIVE VOLUMES      L**3       RATES FOR THIS TIME STEP      L**3/T
     ------------------                 ------------------------

           IN:                                      IN:
           ---                                      ---
               AG WELLS  =  1195158016.0000                 AG WELLS  =           0.0000
      DIVERSION SEGMENTS =           0.0000        DIVERSION SEGMENTS =           0.0000
           GW IRRIGATION =           0.0000             GW IRRIGATION =           0.0000
           SW IRRIGATION =           0.0000             SW IRRIGATION =           0.0000
        SYSTEM LOSSES GW =           0.0000          SYSTEM LOSSES GW =           0.0000
        SYSTEM LOSSES SW =           0.0000          SYSTEM LOSSES SW =           0.0000

                TOTAL IN =  1195158016.0000                  TOTAL IN =           0.0000

          OUT:                                     OUT:
          ----                                     ----
               AG WELLS  =           0.0000                 AG WELLS  =           0.0000
      DIVERSION SEGMENTS =           0.0000        DIVERSION SEGMENTS =           0.0000
           GW IRRIGATION =  1195158016.0000             GW IRRIGATION =           0.0000
           SW IRRIGATION =           0.0000             SW IRRIGATION =           0.0000
        SYSTEM LOSSES GW =           0.0000          SYSTEM LOSSES GW =           0.0000
        SYSTEM LOSSES SW =           0.0000          SYSTEM LOSSES SW =           0.0000

               TOTAL OUT =  1195158016.0000                 TOTAL OUT =           0.0000

                IN - OUT =           0.0000                  IN - OUT =           0.0000

     PERCENT DISCREPANCY =           0.00         PERCENT DISCREPANCY =           0.00



1
  VOLUMETRIC BUDGET FOR ENTIRE MODEL AT END OF TIME STEP   30, STRESS PERIOD  40
  ------------------------------------------------------------------------------

     CUMULATIVE VOLUMES      L**3       RATES FOR THIS TIME STEP      L**3/T
     ------------------                 ------------------------

           IN:                                      IN:
           ---                                      ---
             STORAGE     =  1682530688.0000               STORAGE     =           4.1826
       CONSTANT HEAD     =           0.0000         CONSTANT HEAD     =           0.0000
     HEAD DEP BOUNDS     =    29356240.0000       HEAD DEP BOUNDS     =           0.2877
      STREAM LEAKAGE     =  1256394624.0000        STREAM LEAKAGE     =          12.2398
        UZF RECHARGE     =     1176082.2500          UZF RECHARGE     =       8.0001E-02
               GW ET     =           0.0000                 GW ET     =           0.0000
     SURFACE LEAKAGE     =           0.0000       SURFACE LEAKAGE     =           0.0000
           AG WELLS      =           0.0000             AG WELLS      =           0.0000

                TOTAL IN =  2969457664.0000                  TOTAL IN =          16.7901

          OUT:                                     OUT:
          ----                                     ----
             STORAGE     =   677612992.0000               STORAGE     =           6.8596
       CONSTANT HEAD     =           0.0000         CONSTANT HEAD     =           0.0000
     HEAD DEP BOUNDS     =    29993662.0000       HEAD DEP BOUNDS     =           0.2889
      STREAM LEAKAGE     =  1049379200.0000        STREAM LEAKAGE     =           9.6424
        UZF RECHARGE     =           0.0000          UZF RECHARGE     =           0.0000
               GW ET     =    17319432.0000                 GW ET     =           0.0000
     SURFACE LEAKAGE     =           0.0000       SURFACE LEAKAGE     =           0.0000
           AG WELLS      =  1195158016.0000             AG WELLS      =           0.0000

               TOTAL OUT =  2969463296.0000                 TOTAL OUT =          16.7909

                IN - OUT =       -5632.0000                  IN - OUT =      -7.8773E-04

     PERCENT DISCREPANCY =          -0.00         PERCENT DISCREPANCY =          -0.00






         TIME SUMMARY AT END OF TIME STEP   30 IN STRESS PERIOD   40
                    SECONDS     MINUTES      HOURS       DAYS        YEARS
                    -----------------------------------------------------------
   TIME STEP LENGTH  87667.      1461.1      24.352      1.0147     2.77799E-03
 STRESS PERIOD TIME 2.63000E+06  43833.      730.56      30.440     8.33397E-02
         TOTAL TIME 1.02656E+08 1.71093E+06  28515.      1188.1      3.2530    
1
1
                            STRESS PERIOD NO.   41, LENGTH =   2630000.    
                            -----------------------------------------------

                              NUMBER OF TIME STEPS =    30

                               MULTIPLIER FOR DELT =     1.000

                            INITIAL TIME STEP SIZE =   87666.66    

 REUSING NON-PARAMETER GHB CELLS FROM LAST STRESS PERIOD

      2 GHB CELLS

 REUSING STREAM SEGMENT DATA FROM LAST STRESS PERIOD



            AREAL INFILTRATION RATE
 READING ON UNIT   19 WITH FORMAT: (10F4.0)            

            1           2           3           4           5           6           7           8           9          10
 ........................................................................................................................
   1   1.2000E-09   0.000       0.000       0.000       0.000       0.000       0.000       0.000       0.000       0.000    
   2   2.1000E-09  2.0000E-09  8.0000E-10  8.5000E-09   0.000       0.000       0.000       0.000       0.000       0.000    
   3   5.0000E-10  1.1000E-09  8.8000E-09  5.5000E-09   0.000       0.000       0.000       0.000       0.000       0.000    
   4   8.5000E-09  1.1000E-09  1.1000E-09  1.1000E-09  2.0000E-09   0.000       0.000       0.000       0.000       0.000    
   5   8.5000E-09  1.1000E-09  1.1000E-09  1.1000E-09  1.1000E-09   0.000       0.000       0.000       0.000       0.000    
   6   8.5000E-09  5.2000E-09  2.1000E-09  1.1000E-09  1.5000E-09   0.000       0.000       0.000       0.000       0.000    
   7   8.5000E-09  5.2000E-09  2.1000E-09  1.2000E-09  2.0000E-09   0.000       0.000       0.000       0.000       0.000    
   8   5.0000E-10  5.2000E-09  2.1000E-09  1.2000E-09  5.0000E-09   0.000       0.000       0.000       0.000       0.000    
   9   5.0000E-10  5.2000E-09  2.1000E-09  1.2000E-09  5.0000E-09   0.000       0.000       0.000       0.000       0.000    
  10   5.0000E-10  5.2000E-09  2.1000E-09  1.2000E-09  5.8000E-09   0.000       0.000       0.000       0.000       0.000    
  11   1.0000E-10  1.1000E-09  1.1000E-09  1.2000E-09  5.0000E-09   0.000       0.000       0.000       0.000       0.000    
  12   1.1000E-09  1.1000E-09  1.1000E-09  1.1000E-09  2.0000E-09   0.000       0.000       0.000       0.000       0.000    
  13   1.1000E-09  2.2000E-09  2.2000E-09  2.1000E-09  1.0000E-09   0.000       0.000       0.000       0.000       0.000    
  14   2.0000E-10  5.5000E-09  5.5000E-09  5.2000E-09  1.0000E-09   0.000       0.000       0.000       0.000       0.000    
  15    0.000      8.8000E-09  8.8000E-09   0.000       0.000       0.000       0.000       0.000       0.000       0.000    

                  ET RATE =  2.500000E-08

 USING ET EXTINCTION DEPTH FROM PREVIOUS STRESS PERIOD. CURRENT PERIOD IS:      41

 USING EXTINCTION WATER CONTENT FROM PREVIOUS STRESS PERIOD. CURRENT PERIOD IS:      41

 USING AIR ENTRY PRESSURE FROM PREVIOUS STRESS PERIOD. CURRENT PERIOD IS:      41

 USING ROOT PRESSURE HEAD FROM PREVIOUS STRESS PERIOD. CURRENT PERIOD IS:      41

 USING ROOT ACTIVITY FROM PREVIOUS STRESS PERIOD. CURRENT PERIOD IS:      41

 PROCESSING AG STRESS PERIOD DATA

 READING AG STRESS PERIOD DATA

 READING IRRIGATION WELL

 END PROCESSING AG STRESS PERIOD DATA OPTIONS
 
 SOLVING FOR HEAD 
                                                   Max.-Head-Change                         Max.-Flux-Residual
  Residual-Control   Outer-Iter.   Inner-Iter.     Column Row Layer    Maximum-Head-Change  Column Row Layer    Maximum-Flux-Residual          L2-NORM 
          0                 1           2             4    7     1       0.1105026621E-01       4    7    1         0.5781624149E+00      0.1621944257E+01
          0                 2           2             4    7     1      -0.1074891609E-02       4    7    1        -0.5781637777E-01      0.1621963209E+00
          0                 3           1             4    7     1       0.7319611623E-04       4    7    1         0.4047146904E-02      0.1135406106E-01

    ------------------------------------------------
       NWT REQUIRED            3 OUTER ITERATIONS 
       AND A TOTAL OF          5 INNER ITERATIONS.
    ------------------------------------------------

 NO OUTPUT CONTROL FOR STRESS PERIOD   41   TIME STEP    1
 
 SOLVING FOR HEAD 
                                                   Max.-Head-Change                         Max.-Flux-Residual
  Residual-Control   Outer-Iter.   Inner-Iter.     Column Row Layer    Maximum-Head-Change  Column Row Layer    Maximum-Flux-Residual          L2-NORM 
          0                 1           2             4    7     1       0.1092785357E-01       4    7    1         0.5717445326E+00      0.1610553349E+01
          0                 2           2             4    7     1      -0.1063438279E-02       4    7    1        -0.5717458617E-01      0.1616066726E+00
          0                 3           1             4    7     1       0.7241618810E-04       4    7    1         0.4002221550E-02      0.1131277510E-01

    ------------------------------------------------
       NWT REQUIRED            3 OUTER ITERATIONS 
       AND A TOTAL OF          5 INNER ITERATIONS.
    ------------------------------------------------

 NO OUTPUT CONTROL FOR STRESS PERIOD   41   TIME STEP    2
 
 SOLVING FOR HEAD 
                                                   Max.-Head-Change                         Max.-Flux-Residual
  Residual-Control   Outer-Iter.   Inner-Iter.     Column Row Layer    Maximum-Head-Change  Column Row Layer    Maximum-Flux-Residual          L2-NORM 
          0                 1           2             3    7     1       0.9283965278E-02       5    7    1         0.4860580173E+00      0.1468825377E+01
          0                 2           2             4    7     1      -0.9744093332E-03       4    7    1        -0.5310717257E-01      0.1508157997E+00
          0                 3           1             4    7     1       0.6635365811E-04       4    7    1         0.3717503427E-02      0.1055745797E-01

    ------------------------------------------------
       NWT REQUIRED            3 OUTER ITERATIONS 
       AND A TOTAL OF          5 INNER ITERATIONS.
    ------------------------------------------------

 NO OUTPUT CONTROL FOR STRESS PERIOD   41   TIME STEP    3
 
 SOLVING FOR HEAD 
                                                   Max.-Head-Change                         Max.-Flux-Residual
  Residual-Control   Outer-Iter.   Inner-Iter.     Column Row Layer    Maximum-Head-Change  Column Row Layer    Maximum-Flux-Residual          L2-NORM 
          0                 1           2             3    7     1       0.9138593243E-02       5    7    1         0.4809605014E+00      0.1268397787E+01
          0                 2           2             3    7     1      -0.8889367487E-03       5    7    1        -0.4809621369E-01      0.1268445225E+00
          0                 3           1             3    7     1       0.6053337670E-04       5    7    1         0.3366734869E-02      0.8879560268E-02

    ------------------------------------------------
       NWT REQUIRED            3 OUTER ITERATIONS 
       AND A TOTAL OF          5 INNER ITERATIONS.
    ------------------------------------------------

 NO OUTPUT CONTROL FOR STRESS PERIOD   41   TIME STEP    4
 
 SOLVING FOR HEAD 
                                                   Max.-Head-Change                         Max.-Flux-Residual
  Residual-Control   Outer-Iter.   Inner-Iter.     Column Row Layer    Maximum-Head-Change  Column Row Layer    Maximum-Flux-Residual          L2-NORM 
          0                 1           2             3    7     1       0.8998226913E-02       5    7    1         0.4598148799E+00      0.1236940308E+01
          0                 2           2             3    7     1      -0.8752829400E-03       5    7    1        -0.4598165837E-01      0.1236966250E+00
          0                 3           1             3    7     1       0.5960358978E-04       5    7    1         0.3218715877E-02      0.8659218211E-02

    ------------------------------------------------
       NWT REQUIRED            3 OUTER ITERATIONS 
       AND A TOTAL OF          5 INNER ITERATIONS.
    ------------------------------------------------

 NO OUTPUT CONTROL FOR STRESS PERIOD   41   TIME STEP    5
 
 SOLVING FOR HEAD 
                                                   Max.-Head-Change                         Max.-Flux-Residual
  Residual-Control   Outer-Iter.   Inner-Iter.     Column Row Layer    Maximum-Head-Change  Column Row Layer    Maximum-Flux-Residual          L2-NORM 
          0                 1           2             3    7     1       0.8860041387E-02       5    8    1         0.4063115361E+00      0.1138748599E+01
          0                 2           2             3    7     1      -0.8618412475E-03       5    8    1        -0.4063130656E-01      0.1138776028E+00
          0                 3           1             3    7     1       0.5868825862E-04       5    8    1         0.2844191231E-02      0.7971910062E-02

    ------------------------------------------------
       NWT REQUIRED            3 OUTER ITERATIONS 
       AND A TOTAL OF          5 INNER ITERATIONS.
    ------------------------------------------------

 NO OUTPUT CONTROL FOR STRESS PERIOD   41   TIME STEP    6
 
 SOLVING FOR HEAD 
                                                   Max.-Head-Change                         Max.-Flux-Residual
  Residual-Control   Outer-Iter.   Inner-Iter.     Column Row Layer    Maximum-Head-Change  Column Row Layer    Maximum-Flux-Residual          L2-NORM 
          0                 1           2             3    7     1       0.8724200489E-02       5    8    1         0.3819658794E+00      0.1110471957E+01
          0                 2           2             3    7     1      -0.8486277959E-03       5    8    1        -0.4030646563E-01      0.1117932021E+00
          0                 3           1             3    7     1       0.5778847619E-04       5    8    1         0.2821452191E-02      0.7826037768E-02

    ------------------------------------------------
       NWT REQUIRED            3 OUTER ITERATIONS 
       AND A TOTAL OF          5 INNER ITERATIONS.
    ------------------------------------------------

 NO OUTPUT CONTROL FOR STRESS PERIOD   41   TIME STEP    7
 
 SOLVING FOR HEAD 
                                                   Max.-Head-Change                         Max.-Flux-Residual
  Residual-Control   Outer-Iter.   Inner-Iter.     Column Row Layer    Maximum-Head-Change  Column Row Layer    Maximum-Flux-Residual          L2-NORM 
          0                 1           2             3    7     1       0.8590698784E-02       5    8    1         0.3685609268E+00      0.1091856371E+01
          0                 2           2             3    7     1      -0.8356415115E-03       5    8    1        -0.3685622450E-01      0.1091883486E+00
          0                 3           1             3    7     1       0.5690416000E-04       5    8    1         0.2579935576E-02      0.7643695411E-02

    ------------------------------------------------
       NWT REQUIRED            3 OUTER ITERATIONS 
       AND A TOTAL OF          5 INNER ITERATIONS.
    ------------------------------------------------

 NO OUTPUT CONTROL FOR STRESS PERIOD   41   TIME STEP    8
 
 SOLVING FOR HEAD 
                                                   Max.-Head-Change                         Max.-Flux-Residual
  Residual-Control   Outer-Iter.   Inner-Iter.     Column Row Layer    Maximum-Head-Change  Column Row Layer    Maximum-Flux-Residual          L2-NORM 
          0                 1           2             3    7     1       0.8459493496E-02       6    7    1         0.2803037072E+00      0.1023405273E+01
          0                 2           2             3    7     1      -0.8228787930E-03       6    7    1        -0.2803047061E-01      0.1023433705E+00
          0                 3           1             3    7     1       0.5603506368E-04       6    7    1         0.1962132846E-02      0.7164557269E-02

    ------------------------------------------------
       NWT REQUIRED            3 OUTER ITERATIONS 
       AND A TOTAL OF          5 INNER ITERATIONS.
    ------------------------------------------------

 NO OUTPUT CONTROL FOR STRESS PERIOD   41   TIME STEP    9
 
 SOLVING FOR HEAD 
                                                   Max.-Head-Change                         Max.-Flux-Residual
  Residual-Control   Outer-Iter.   Inner-Iter.     Column Row Layer    Maximum-Head-Change  Column Row Layer    Maximum-Flux-Residual          L2-NORM 
          0                 1           2             3    7     1       0.8330552568E-02       6    7    1         0.2721498674E+00      0.9990294081E+00
          0                 2           2             3    7     1      -0.8103363357E-03       6    7    1        -0.2721508123E-01      0.9991431436E-01
          0                 3           1             3    7     1       0.5518096735E-04       6    7    1         0.1905055625E-02      0.6997915394E-02

    ------------------------------------------------
       NWT REQUIRED            3 OUTER ITERATIONS 
       AND A TOTAL OF          5 INNER ITERATIONS.
    ------------------------------------------------

 NO OUTPUT CONTROL FOR STRESS PERIOD   41   TIME STEP   10
 
 SOLVING FOR HEAD 
                                                   Max.-Head-Change                         Max.-Flux-Residual
  Residual-Control   Outer-Iter.   Inner-Iter.     Column Row Layer    Maximum-Head-Change  Column Row Layer    Maximum-Flux-Residual          L2-NORM 
          0                 1           2             3    7     1       0.8204088447E-02       4    9    1         0.2650050602E+00      0.9838087242E+00
          0                 2           2             3    7     1      -0.7980348050E-03       4    9    1        -0.2650054746E-01      0.9839199424E-01
          0                 3           1             3    7     1       0.5434327686E-04       4    9    1         0.1855038731E-02      0.6890416371E-02

    ------------------------------------------------
       NWT REQUIRED            3 OUTER ITERATIONS 
       AND A TOTAL OF          5 INNER ITERATIONS.
    ------------------------------------------------

 NO OUTPUT CONTROL FOR STRESS PERIOD   41   TIME STEP   11
 
 SOLVING FOR HEAD 
                                                   Max.-Head-Change                         Max.-Flux-Residual
  Residual-Control   Outer-Iter.   Inner-Iter.     Column Row Layer    Maximum-Head-Change  Column Row Layer    Maximum-Flux-Residual          L2-NORM 
          0                 1           2             3    7     1       0.8079580871E-02       4    9    1         0.2590760554E+00      0.9683506721E+00
          0                 2           2             3    7     1      -0.7859235934E-03       4    9    1        -0.2590764552E-01      0.9684459981E-01
          0                 3           1             3    7     1       0.5351854637E-04       4    9    1         0.1813535583E-02      0.6782191950E-02

    ------------------------------------------------
       NWT REQUIRED            3 OUTER ITERATIONS 
       AND A TOTAL OF          5 INNER ITERATIONS.
    ------------------------------------------------

 NO OUTPUT CONTROL FOR STRESS PERIOD   41   TIME STEP   12
 
 SOLVING FOR HEAD 
                                                   Max.-Head-Change                         Max.-Flux-Residual
  Residual-Control   Outer-Iter.   Inner-Iter.     Column Row Layer    Maximum-Head-Change  Column Row Layer    Maximum-Flux-Residual          L2-NORM 
          0                 1           2             3    7     1       0.7957249907E-02       4    9    1         0.2533386000E+00      0.9531216489E+00
          0                 2           2             3    7     1      -0.7740241079E-03       4    9    1        -0.2533389854E-01      0.9532156591E-01
          0                 3           1             3    7     1       0.5270823365E-04       4    9    1         0.1773373283E-02      0.6675276180E-02

    ------------------------------------------------
       NWT REQUIRED            3 OUTER ITERATIONS 
       AND A TOTAL OF          5 INNER ITERATIONS.
    ------------------------------------------------

 NO OUTPUT CONTROL FOR STRESS PERIOD   41   TIME STEP   13
 
 SOLVING FOR HEAD 
                                                   Max.-Head-Change                         Max.-Flux-Residual
  Residual-Control   Outer-Iter.   Inner-Iter.     Column Row Layer    Maximum-Head-Change  Column Row Layer    Maximum-Flux-Residual          L2-NORM 
          0                 1           2             3    7     1       0.7837309073E-02       4    9    1         0.2477805048E+00      0.9383464819E+00
          0                 2           2             3    7     1      -0.7623571181E-03       4    9    1        -0.2477808760E-01      0.9384228017E-01
          0                 3           1             3    7     1       0.5191375414E-04       4    9    1         0.1734466527E-02      0.6570954203E-02

    ------------------------------------------------
       NWT REQUIRED            3 OUTER ITERATIONS 
       AND A TOTAL OF          5 INNER ITERATIONS.
    ------------------------------------------------

 NO OUTPUT CONTROL FOR STRESS PERIOD   41   TIME STEP   14
 
 SOLVING FOR HEAD 
                                                   Max.-Head-Change                         Max.-Flux-Residual
  Residual-Control   Outer-Iter.   Inner-Iter.     Column Row Layer    Maximum-Head-Change  Column Row Layer    Maximum-Flux-Residual          L2-NORM 
          0                 1           2             3    7     1       0.7719482598E-02       4    9    1         0.2424035710E+00      0.9241340671E+00
          0                 2           2             3    7     1      -0.7508957977E-03       4    9    1        -0.2424039286E-01      0.9242035892E-01
          0                 3           1             3    7     1       0.5113327917E-04       4    9    1         0.1696827911E-02      0.6471433607E-02

    ------------------------------------------------
       NWT REQUIRED            3 OUTER ITERATIONS 
       AND A TOTAL OF          5 INNER ITERATIONS.
    ------------------------------------------------

 NO OUTPUT CONTROL FOR STRESS PERIOD   41   TIME STEP   15
 
 SOLVING FOR HEAD 
                                                   Max.-Head-Change                         Max.-Flux-Residual
  Residual-Control   Outer-Iter.   Inner-Iter.     Column Row Layer    Maximum-Head-Change  Column Row Layer    Maximum-Flux-Residual          L2-NORM 
          0                 1           2             3    7     1       0.7603741998E-02       4    9    1         0.2371969122E+00      0.9105131064E+00
          0                 2           2             3    7     1      -0.7396373771E-03       4    9    1        -0.2371972564E-01      0.9105768595E-01
          0                 3           1             3    7     1       0.5036662119E-04       4    9    1         0.1660381186E-02      0.6375752414E-02

    ------------------------------------------------
       NWT REQUIRED            3 OUTER ITERATIONS 
       AND A TOTAL OF          5 INNER ITERATIONS.
    ------------------------------------------------

 NO OUTPUT CONTROL FOR STRESS PERIOD   41   TIME STEP   16
 
 SOLVING FOR HEAD 
                                                   Max.-Head-Change                         Max.-Flux-Residual
  Residual-Control   Outer-Iter.   Inner-Iter.     Column Row Layer    Maximum-Head-Change  Column Row Layer    Maximum-Flux-Residual          L2-NORM 
          0                 1           2             3    7     1       0.7490057466E-02       4    9    1         0.2321565869E+00      0.8977165890E+00
          0                 2           2             3    7     1      -0.7285789566E-03       4    9    1        -0.2321569183E-01      0.8977901445E-01
          0                 3           1             3    7     1       0.4961358234E-04       4    9    1         0.1625098815E-02      0.6287398671E-02

    ------------------------------------------------
       NWT REQUIRED            3 OUTER ITERATIONS 
       AND A TOTAL OF          5 INNER ITERATIONS.
    ------------------------------------------------

 NO OUTPUT CONTROL FOR STRESS PERIOD   41   TIME STEP   17
 
 SOLVING FOR HEAD 
                                                   Max.-Head-Change                         Max.-Flux-Residual
  Residual-Control   Outer-Iter.   Inner-Iter.     Column Row Layer    Maximum-Head-Change  Column Row Layer    Maximum-Flux-Residual          L2-NORM 
          0                 1           2             3    7     1       0.7378400726E-02       4    9    1         0.2272850707E+00      0.8855706943E+00
          0                 2           2             3    7     1      -0.7177177847E-03       4    9    1        -0.2272853896E-01      0.8856699403E-01
          0                 3           1             3    7     1       0.4887397517E-04       4    9    1         0.1590998119E-02      0.6204644456E-02

    ------------------------------------------------
       NWT REQUIRED            3 OUTER ITERATIONS 
       AND A TOTAL OF          5 INNER ITERATIONS.
    ------------------------------------------------

 NO OUTPUT CONTROL FOR STRESS PERIOD   41   TIME STEP   18
 
 SOLVING FOR HEAD 
                                                   Max.-Head-Change                         Max.-Flux-Residual
  Residual-Control   Outer-Iter.   Inner-Iter.     Column Row Layer    Maximum-Head-Change  Column Row Layer    Maximum-Flux-Residual          L2-NORM 
          0                 1           2             3    7     1       0.7268982184E-02       4    9    1         0.2225780797E+00      0.8736664529E+00
          0                 2           2             3    7     1      -0.7070743301E-03       4    9    1        -0.2225783867E-01      0.8737539293E-01
          0                 3           1             3    7     1       0.4814919452E-04       4    9    1         0.1558049084E-02      0.6120375556E-02

    ------------------------------------------------
       NWT REQUIRED            3 OUTER ITERATIONS 
       AND A TOTAL OF          5 INNER ITERATIONS.
    ------------------------------------------------

 NO OUTPUT CONTROL FOR STRESS PERIOD   41   TIME STEP   19
 
 SOLVING FOR HEAD 
                                                   Max.-Head-Change                         Max.-Flux-Residual
  Residual-Control   Outer-Iter.   Inner-Iter.     Column Row Layer    Maximum-Head-Change  Column Row Layer    Maximum-Flux-Residual          L2-NORM 
          0                 1           2             3    7     1       0.7161768252E-02       4    9    1         0.2180312130E+00      0.8623279290E+00
          0                 2           2             3    7     1      -0.6966453242E-03       4    9    1        -0.2180315084E-01      0.8624063115E-01
          0                 3           1             3    7     1       0.4743901661E-04       4    9    1         0.1526220940E-02      0.6040303978E-02

    ------------------------------------------------
       NWT REQUIRED            3 OUTER ITERATIONS 
       AND A TOTAL OF          5 INNER ITERATIONS.
    ------------------------------------------------

 NO OUTPUT CONTROL FOR STRESS PERIOD   41   TIME STEP   20
 
 SOLVING FOR HEAD 
                                                   Max.-Head-Change                         Max.-Flux-Residual
  Residual-Control   Outer-Iter.   Inner-Iter.     Column Row Layer    Maximum-Head-Change  Column Row Layer    Maximum-Flux-Residual          L2-NORM 
          0                 1           2             3    7     1       0.7056235365E-02       4    9    1         0.2136337885E+00      0.8515243965E+00
          0                 2           2             3    7     1      -0.6863798386E-03       4    9    1        -0.2136340727E-01      0.8515932510E-01
          0                 3           1             3    7     1       0.4673997394E-04       4    9    1         0.1495438872E-02      0.5963962157E-02

    ------------------------------------------------
       NWT REQUIRED            3 OUTER ITERATIONS 
       AND A TOTAL OF          5 INNER ITERATIONS.
    ------------------------------------------------

 NO OUTPUT CONTROL FOR STRESS PERIOD   41   TIME STEP   21
 
 SOLVING FOR HEAD 
                                                   Max.-Head-Change                         Max.-Flux-Residual
  Residual-Control   Outer-Iter.   Inner-Iter.     Column Row Layer    Maximum-Head-Change  Column Row Layer    Maximum-Flux-Residual          L2-NORM 
          0                 1           2             3    7     1       0.6952845547E-02       4    9    1         0.2093882302E+00      0.8412302079E+00
          0                 2           2             3    7     1      -0.6763228155E-03       4    9    1        -0.2093885038E-01      0.8412918435E-01
          0                 3           1             3    7     1       0.4605512704E-04       4    9    1         0.1465719891E-02      0.5891517640E-02

    ------------------------------------------------
       NWT REQUIRED            3 OUTER ITERATIONS 
       AND A TOTAL OF          5 INNER ITERATIONS.
    ------------------------------------------------

 NO OUTPUT CONTROL FOR STRESS PERIOD   41   TIME STEP   22
 
 SOLVING FOR HEAD 
                                                   Max.-Head-Change                         Max.-Flux-Residual
  Residual-Control   Outer-Iter.   Inner-Iter.     Column Row Layer    Maximum-Head-Change  Column Row Layer    Maximum-Flux-Residual          L2-NORM 
          0                 1           2             3    7     1       0.6851561112E-02       4    9    1         0.2052900881E+00      0.8314121821E+00
          0                 2           2             3    7     1      -0.6664705901E-03       4    9    1        -0.2052903516E-01      0.8314674992E-01
          0                 3           1             3    7     1       0.4538422613E-04       4    9    1         0.1437032829E-02      0.5822396842E-02

    ------------------------------------------------
       NWT REQUIRED            3 OUTER ITERATIONS 
       AND A TOTAL OF          5 INNER ITERATIONS.
    ------------------------------------------------

 NO OUTPUT CONTROL FOR STRESS PERIOD   41   TIME STEP   23
 
 SOLVING FOR HEAD 
                                                   Max.-Head-Change                         Max.-Flux-Residual
  Residual-Control   Outer-Iter.   Inner-Iter.     Column Row Layer    Maximum-Head-Change  Column Row Layer    Maximum-Flux-Residual          L2-NORM 
          0                 1           2             3    7     1       0.6752101271E-02       4    9    1         0.2013347991E+00      0.8220428833E+00
          0                 2           2             3    7     1      -0.6567958476E-03       4    9    1        -0.2013350529E-01      0.8220913636E-01
          0                 3           1             3    7     1       0.4472541105E-04       4    9    1         0.1409345736E-02      0.5756467125E-02

    ------------------------------------------------
       NWT REQUIRED            3 OUTER ITERATIONS 
       AND A TOTAL OF          5 INNER ITERATIONS.
    ------------------------------------------------

 NO OUTPUT CONTROL FOR STRESS PERIOD   41   TIME STEP   24
 
 SOLVING FOR HEAD 
                                                   Max.-Head-Change                         Max.-Flux-Residual
  Residual-Control   Outer-Iter.   Inner-Iter.     Column Row Layer    Maximum-Head-Change  Column Row Layer    Maximum-Flux-Residual          L2-NORM 
          0                 1           2             3    7     1       0.6654678521E-02       4    9    1         0.1975114976E+00      0.8131046898E+00
          0                 2           2             3    7     1      -0.6473192591E-03       4    9    1        -0.1975117419E-01      0.8131495099E-01
          0                 3           1             3    7     1       0.4408008966E-04       4    9    1         0.1382582551E-02      0.5693600718E-02

    ------------------------------------------------
       NWT REQUIRED            3 OUTER ITERATIONS 
       AND A TOTAL OF          5 INNER ITERATIONS.
    ------------------------------------------------

 NO OUTPUT CONTROL FOR STRESS PERIOD   41   TIME STEP   25
 
 SOLVING FOR HEAD 
                                                   Max.-Head-Change                         Max.-Flux-Residual
  Residual-Control   Outer-Iter.   Inner-Iter.     Column Row Layer    Maximum-Head-Change  Column Row Layer    Maximum-Flux-Residual          L2-NORM 
          0                 1           2             3    7     1       0.6559011519E-02       4    9    1         0.1938291066E+00      0.8045587502E+00
          0                 2           2             3    7     1      -0.6380134576E-03       4    9    1        -0.1938293419E-01      0.8045991443E-01
          0                 3           1             3    7     1       0.4344639804E-04       4    9    1         0.1356805764E-02      0.5633475981E-02

    ------------------------------------------------
       NWT REQUIRED            3 OUTER ITERATIONS 
       AND A TOTAL OF          5 INNER ITERATIONS.
    ------------------------------------------------

 NO OUTPUT CONTROL FOR STRESS PERIOD   41   TIME STEP   26
 
 SOLVING FOR HEAD 
                                                   Max.-Head-Change                         Max.-Flux-Residual
  Residual-Control   Outer-Iter.   Inner-Iter.     Column Row Layer    Maximum-Head-Change  Column Row Layer    Maximum-Flux-Residual          L2-NORM 
          0                 1           2             3    7     1       0.6465311876E-02       4    9    1         0.1902761991E+00      0.7963894875E+00
          0                 2           2             3    7     1      -0.6288990263E-03       4    9    1        -0.1902764259E-01      0.7964262371E-01
          0                 3           1             3    7     1       0.4282573812E-04       4    9    1         0.1331935337E-02      0.5576063537E-02

    ------------------------------------------------
       NWT REQUIRED            3 OUTER ITERATIONS 
       AND A TOTAL OF          5 INNER ITERATIONS.
    ------------------------------------------------

 NO OUTPUT CONTROL FOR STRESS PERIOD   41   TIME STEP   27
 
 SOLVING FOR HEAD 
                                                   Max.-Head-Change                         Max.-Flux-Residual
  Residual-Control   Outer-Iter.   Inner-Iter.     Column Row Layer    Maximum-Head-Change  Column Row Layer    Maximum-Flux-Residual          L2-NORM 
          0                 1           2             3    7     1       0.6373297965E-02       4    9    1         0.1868420134E+00      0.7885669343E+00
          0                 2           2             3    7     1      -0.6199485717E-03       4    9    1        -0.1868422319E-01      0.7886004265E-01
          0                 3           1             3    7     1       0.4221624421E-04       4    9    1         0.1307895986E-02      0.5521178039E-02

    ------------------------------------------------
       NWT REQUIRED            3 OUTER ITERATIONS 
       AND A TOTAL OF          5 INNER ITERATIONS.
    ------------------------------------------------

 NO OUTPUT CONTROL FOR STRESS PERIOD   41   TIME STEP   28
 
 SOLVING FOR HEAD 
                                                   Max.-Head-Change                         Max.-Flux-Residual
  Residual-Control   Outer-Iter.   Inner-Iter.     Column Row Layer    Maximum-Head-Change  Column Row Layer    Maximum-Flux-Residual          L2-NORM 
          0                 1           2             3    7     1       0.6283181209E-02       4    9    1         0.1835353371E+00      0.7810751617E+00
          0                 2           2             3    7     1      -0.6111826583E-03       4    9    1        -0.1835355478E-01      0.7811062271E-01
          0                 3           1             3    7     1       0.4161931730E-04       4    9    1         0.1284749199E-02      0.5468587322E-02

    ------------------------------------------------
       NWT REQUIRED            3 OUTER ITERATIONS 
       AND A TOTAL OF          5 INNER ITERATIONS.
    ------------------------------------------------

 NO OUTPUT CONTROL FOR STRESS PERIOD   41   TIME STEP   29
 
 SOLVING FOR HEAD 
                                                   Max.-Head-Change                         Max.-Flux-Residual
  Residual-Control   Outer-Iter.   Inner-Iter.     Column Row Layer    Maximum-Head-Change  Column Row Layer    Maximum-Flux-Residual          L2-NORM 
          0                 1           2             3    7     1       0.6194921687E-02       4    9    1         0.1803387566E+00      0.7738991411E+00
          0                 2           2             3    7     1      -0.6025974046E-03       4    9    1        -0.1803389598E-01      0.7739033521E-01
          0                 3           1             3    7     1       0.4103469278E-04       4    9    1         0.1262373074E-02      0.5417614562E-02

    ------------------------------------------------
       NWT REQUIRED            3 OUTER ITERATIONS 
       AND A TOTAL OF          5 INNER ITERATIONS.
    ------------------------------------------------

 NO OUTPUT CONTROL FOR STRESS PERIOD   41   TIME STEP   30



 STREAM LISTING     PERIOD     41   STEP       30

 LAYER ROW COL. STREAM  RCH.  FLOW INTO     FLOW TO   FLOW OUT OF   OVRLND.     DIRECT     STREAM       STREAM     STREAM     STREAM   STREAMBED  STREAMBED
                SEG.NO.  NO.  STRM. RCH.    AQUIFER    STRM. RCH.    RUNOFF     PRECIP       ET          HEAD       DEPTH      WIDTH   CONDCTNC.   GRADIENT

   1    1    1     1     1    1.9000E+01  2.1427E-01   1.8786E+01  0.000E+00  0.000E+00  0.000E+00  1.09413E+03  1.082E+00  1.166E+01  5.249E-02  1.361E+00
   1    2    2     1     2    1.8786E+01  3.3054E-01   1.8455E+01  0.000E+00  0.000E+00  0.000E+00  1.08914E+03  1.077E+00  1.158E+01  8.107E-02  1.359E+00
   1    3    3     1     3    1.8455E+01  2.8064E-01   1.8175E+01  0.000E+00  0.000E+00  0.000E+00  1.08349E+03  1.072E+00  1.149E+01  6.892E-02  1.357E+00
   1    3    4     1     4    1.8175E+01  2.5740E-01   1.7917E+01  0.000E+00  0.000E+00  0.000E+00  1.07848E+03  1.068E+00  1.140E+01  6.328E-02  1.356E+00
   1    4    5     2     1    1.5917E+01  3.0542E-01   1.5612E+01  0.000E+00  0.000E+00  0.000E+00  1.07285E+03  9.157E-01  1.200E+01  7.800E-02  1.305E+00
   1    5    6     2     2    1.5612E+01  2.3438E-01   1.5377E+01  0.000E+00  0.000E+00  0.000E+00  1.06742E+03  9.063E-01  1.200E+01  6.000E-02  1.302E+00
   1    6    6     2     3    1.5377E+01  2.3388E-01   1.5143E+01  0.000E+00  0.000E+00  0.000E+00  1.06269E+03  8.980E-01  1.200E+01  6.000E-02  1.299E+00
   1    7    6     2     4    1.5143E+01  2.3338E-01   1.4910E+01  0.000E+00  0.000E+00  0.000E+00  1.05797E+03  8.897E-01  1.200E+01  6.000E-02  1.297E+00
   1    8    6     2     5    1.4910E+01  2.3289E-01   1.4677E+01  0.000E+00  0.000E+00  0.000E+00  1.05324E+03  8.814E-01  1.200E+01  6.000E-02  1.294E+00
   1    3    5     3     1    2.0000E+00  2.8252E-01   1.7175E+00  0.000E+00  0.000E+00  0.000E+00  1.07555E+03  1.909E+00  9.636E+00  7.227E-02  1.955E+00
   1    3    6     3     2    1.7175E+00  2.4905E-01   1.4684E+00  0.000E+00  0.000E+00  0.000E+00  1.07264E+03  1.727E+00  8.909E+00  6.682E-02  1.864E+00
   1    3    7     3     3    1.4684E+00  1.9718E-01   1.2712E+00  0.000E+00  0.000E+00  0.000E+00  1.06987E+03  1.555E+00  8.218E+00  5.547E-02  1.777E+00
   1    4    8     3     4    1.2712E+00  2.2567E-01   1.0456E+00  0.000E+00  0.000E+00  0.000E+00  1.06682E+03  1.364E+00  7.455E+00  6.709E-02  1.682E+00
   1    5    8     3     5    1.0456E+00  1.5790E-01   8.8768E-01  0.000E+00  0.000E+00  0.000E+00  1.06362E+03  1.164E+00  6.655E+00  4.991E-02  1.582E+00
   1    6    8     3     6    8.8768E-01  5.5980E-02   8.3170E-01  0.000E+00  0.000E+00  0.000E+00  1.06158E+03  1.036E+00  6.145E+00  1.844E-02  1.518E+00
   1    5   10     4     1    1.0000E+01  9.0919E-02   9.9091E+00  0.000E+00  0.000E+00  0.000E+00  1.07836E+03  6.368E-01  1.000E+01  2.500E-02  1.212E+00
   1    5    9     4     2    9.9091E+00  1.8158E-01   9.7275E+00  0.000E+00  0.000E+00  0.000E+00  1.07154E+03  6.315E-01  1.000E+01  5.000E-02  1.211E+00
   1    6    8     4     3    9.7275E+00  1.2689E-01   9.6006E+00  0.000E+00  0.000E+00  0.000E+00  1.06381E+03  6.256E-01  1.000E+01  3.500E-02  1.209E+00
   1    6    8     5     1    1.0432E+01  2.2686E-01   1.0205E+01  0.000E+00  0.000E+00  0.000E+00  1.05868E+03  6.790E-01  1.542E+01  6.166E-02  1.226E+00
   1    7    7     5     2    1.0205E+01  2.7894E-01   9.9265E+00  0.000E+00  0.000E+00  0.000E+00  1.05417E+03  6.732E-01  1.519E+01  7.594E-02  1.224E+00
   1    8    7     5     3    9.9265E+00  1.9221E-01   9.7343E+00  0.000E+00  0.000E+00  0.000E+00  1.04992E+03  6.676E-01  1.497E+01  5.241E-02  1.223E+00
   1    8    6     5     4    9.7343E+00  1.3577E-01   9.5985E+00  0.000E+00  0.000E+00  0.000E+00  1.04691E+03  6.637E-01  1.482E+01  3.706E-02  1.221E+00
   1    9    6     6     1    2.4276E+01  2.5176E-01   2.4024E+01  0.000E+00  0.000E+00  0.000E+00  1.04392E+03  1.196E+00  1.200E+01  6.000E-02  1.399E+00
   1   10    7     6     2    2.4024E+01  2.5131E-01   2.3773E+01  0.000E+00  0.000E+00  0.000E+00  1.03937E+03  1.188E+00  1.200E+01  6.000E-02  1.396E+00
   1   11    7     6     3    2.3773E+01  2.5086E-01   2.3522E+01  0.000E+00  0.000E+00  0.000E+00  1.03482E+03  1.181E+00  1.200E+01  6.000E-02  1.394E+00
   1   12    7     6     4    2.3522E+01  2.5041E-01   2.3271E+01  0.000E+00  0.000E+00  0.000E+00  1.03026E+03  1.173E+00  1.200E+01  6.000E-02  1.391E+00
   1   13    7     6     5    2.3271E+01  1.0354E-02   2.3261E+01  0.000E+00  0.000E+00  0.000E+00  1.02708E+03  1.170E+00  1.200E+01  2.400E-02  1.438E-01
   1   14    9     7     1    1.5000E+02  1.3669E+00   1.4863E+02  0.000E+00  0.000E+00  0.000E+00  1.03987E+03  2.288E+00  5.529E+01  5.593E-01  8.147E-01
   1   13    8     7     2    1.4863E+02  1.9595E+00   1.4667E+02  0.000E+00  0.000E+00  0.000E+00  1.03478E+03  2.279E+00  5.525E+01  6.147E-01  1.062E+00
   1   13    7     7     3    1.4667E+02  1.6981E+00   1.4498E+02  0.000E+00  0.000E+00  0.000E+00  1.02969E+03  2.269E+00  5.521E+01  5.584E-01  1.014E+00
   1   13    6     8     1    1.6824E+02  1.1354E+00   1.6710E+02  0.000E+00  0.000E+00  0.000E+00  1.02481E+03  2.937E+00  4.259E+01  4.340E-01  8.721E-01
   1   13    5     8     2    1.6710E+02  3.7413E-01   1.6673E+02  0.000E+00  0.000E+00  0.000E+00  1.01856E+03  2.932E+00  4.251E+01  4.332E-01  2.879E-01
   1   13    4     8     3    1.6673E+02 -1.7855E+00   1.6851E+02  0.000E+00  0.000E+00  0.000E+00  1.01231E+03  2.937E+00  4.258E+01  4.339E+00 -1.372E-01
   1   13    3     8     4    1.6851E+02 -3.3352E+00   1.7185E+02  0.000E+00  0.000E+00  0.000E+00  1.00608E+03  2.953E+00  4.282E+01  4.364E+00 -2.548E-01
   1   13    2     8     5    1.7185E+02 -2.4998E+00   1.7435E+02  0.000E+00  0.000E+00  0.000E+00  9.99847E+02  2.972E+00  4.310E+01  4.392E+00 -1.897E-01
   1   13    1     8     6    1.7435E+02 -1.9625E+00   1.7631E+02  0.000E+00  0.000E+00  0.000E+00  9.94862E+02  2.987E+00  4.331E+01  2.648E+00 -2.471E-01





UNSATURATED ZONE PACKAGE VOLUMETRIC BUDGET FOR  TIME STEP    30 STRESS PERIOD   41
  ------------------------------------------------------------------------------



     CUMULATIVE VOLUMES      L**3       RATES FOR THIS TIME STEP      L**3/T
     ------------------                 ------------------------

           IN:                                      IN:
           ---                                      ---
        INFILTRATION =  1666741068.4880          INFILTRATION =           7.8526

          OUT:                                     OUT:
          ----                                     ----
              UZF ET =  1538848676.0333                UZF ET =           7.8575
        UZF RECHARGE =     1306739.3296          UZF RECHARGE =           0.0279

            IN - OUT =   126585653.1251              IN - OUT =      -3.2802E-02

          STORAGE:                                 STORAGE:
          --------                                 --------
      STORAGE CHANGE =   126587285.2645        STORAGE CHANGE =      -3.2802E-02

 PERCENT DISCREPANCY IS DIFFERENCE BETWEEN IN-OUT MINUS CHANGE IN STORAGE
 DIVIDED BY THE AVERAGE OF IN AND OUT TIMES 100

 PERCENT DISCREPANCY =          -0.00     PERCENT DISCREPANCY =           0.00






1
  VOLUMETRIC BUDGET FOR ENTIRE MODEL AT END OF TIME STEP   30, STRESS PERIOD  41
  ------------------------------------------------------------------------------

     CUMULATIVE VOLUMES      L**3       RATES FOR THIS TIME STEP      L**3/T
     ------------------                 ------------------------

           IN:                                      IN:
           ---                                      ---
               AG WELLS  =  1202999936.0000                 AG WELLS  =           3.4451
      DIVERSION SEGMENTS =           0.0000        DIVERSION SEGMENTS =           0.0000
           GW IRRIGATION =           0.0000             GW IRRIGATION =           0.0000
           SW IRRIGATION =           0.0000             SW IRRIGATION =           0.0000
        SYSTEM LOSSES GW =           0.0000          SYSTEM LOSSES GW =           0.0000
        SYSTEM LOSSES SW =           0.0000          SYSTEM LOSSES SW =           0.0000

                TOTAL IN =  1202999936.0000                  TOTAL IN =           3.4451

          OUT:                                     OUT:
          ----                                     ----
               AG WELLS  =           0.0000                 AG WELLS  =           0.0000
      DIVERSION SEGMENTS =           0.0000        DIVERSION SEGMENTS =           0.0000
           GW IRRIGATION =  1202999936.0000             GW IRRIGATION =           3.4451
           SW IRRIGATION =           0.0000             SW IRRIGATION =           0.0000
        SYSTEM LOSSES GW =           0.0000          SYSTEM LOSSES GW =           0.0000
        SYSTEM LOSSES SW =           0.0000          SYSTEM LOSSES SW =           0.0000

               TOTAL OUT =  1202999936.0000                 TOTAL OUT =           3.4451

                IN - OUT =           0.0000                  IN - OUT =           0.0000

     PERCENT DISCREPANCY =           0.00         PERCENT DISCREPANCY =           0.00



1
  VOLUMETRIC BUDGET FOR ENTIRE MODEL AT END OF TIME STEP   30, STRESS PERIOD  41
  ------------------------------------------------------------------------------

     CUMULATIVE VOLUMES      L**3       RATES FOR THIS TIME STEP      L**3/T
     ------------------                 ------------------------

           IN:                                      IN:
           ---                                      ---
             STORAGE     =  1693061888.0000               STORAGE     =           3.5960
       CONSTANT HEAD     =           0.0000         CONSTANT HEAD     =           0.0000
     HEAD DEP BOUNDS     =    30113182.0000       HEAD DEP BOUNDS     =           0.2879
      STREAM LEAKAGE     =  1288631552.0000        STREAM LEAKAGE     =          12.2730
        UZF RECHARGE     =     1306739.3750          UZF RECHARGE     =       2.7869E-02
               GW ET     =           0.0000                 GW ET     =           0.0000
     SURFACE LEAKAGE     =           0.0000       SURFACE LEAKAGE     =           0.0000
           AG WELLS      =           0.0000             AG WELLS      =           0.0000

                TOTAL IN =  3013113344.0000                  TOTAL IN =          16.1848

          OUT:                                     OUT:
          ----                                     ----
             STORAGE     =   687377152.0000               STORAGE     =           2.8678
       CONSTANT HEAD     =           0.0000         CONSTANT HEAD     =           0.0000
     HEAD DEP BOUNDS     =    30753520.0000       HEAD DEP BOUNDS     =           0.2889
      STREAM LEAKAGE     =  1074668928.0000        STREAM LEAKAGE     =           9.5829
        UZF RECHARGE     =           0.0000          UZF RECHARGE     =           0.0000
               GW ET     =    17319432.0000                 GW ET     =           0.0000
     SURFACE LEAKAGE     =           0.0000       SURFACE LEAKAGE     =           0.0000
           AG WELLS      =  1202999936.0000             AG WELLS      =           3.4451

               TOTAL OUT =  3013118976.0000                 TOTAL OUT =          16.1846

                IN - OUT =       -5632.0000                  IN - OUT =       1.9264E-04

     PERCENT DISCREPANCY =          -0.00         PERCENT DISCREPANCY =           0.00






         TIME SUMMARY AT END OF TIME STEP   30 IN STRESS PERIOD   41
                    SECONDS     MINUTES      HOURS       DAYS        YEARS
                    -----------------------------------------------------------
   TIME STEP LENGTH  87667.      1461.1      24.352      1.0147     2.77799E-03
 STRESS PERIOD TIME 2.63000E+06  43833.      730.56      30.440     8.33397E-02
         TOTAL TIME 1.05286E+08 1.75476E+06  29246.      1218.6      3.3363    
1
1
                            STRESS PERIOD NO.   42, LENGTH =   2630000.    
                            -----------------------------------------------

                              NUMBER OF TIME STEPS =    30

                               MULTIPLIER FOR DELT =     1.000

                            INITIAL TIME STEP SIZE =   87666.66    

 REUSING NON-PARAMETER GHB CELLS FROM LAST STRESS PERIOD

      2 GHB CELLS

 REUSING STREAM SEGMENT DATA FROM LAST STRESS PERIOD



            AREAL INFILTRATION RATE
 READING ON UNIT   19 WITH FORMAT: (10F4.0)            

            1           2           3           4           5           6           7           8           9          10
 ........................................................................................................................
   1   1.2000E-09   0.000       0.000       0.000       0.000       0.000       0.000       0.000       0.000       0.000    
   2   2.1000E-09  2.0000E-09  8.0000E-10  8.5000E-09   0.000       0.000       0.000       0.000       0.000       0.000    
   3   5.0000E-10  1.1000E-09  8.8000E-09  5.5000E-09   0.000       0.000       0.000       0.000       0.000       0.000    
   4   8.5000E-09  1.1000E-09  1.1000E-09  1.1000E-09  2.0000E-09   0.000       0.000       0.000       0.000       0.000    
   5   8.5000E-09  1.1000E-09  1.1000E-09  1.1000E-09  1.1000E-09   0.000       0.000       0.000       0.000       0.000    
   6   8.5000E-09  5.2000E-09  2.1000E-09  1.1000E-09  1.5000E-09   0.000       0.000       0.000       0.000       0.000    
   7   8.5000E-09  5.2000E-09  2.1000E-09  1.2000E-09  2.0000E-09   0.000       0.000       0.000       0.000       0.000    
   8   5.0000E-10  5.2000E-09  2.1000E-09  1.2000E-09  5.0000E-09   0.000       0.000       0.000       0.000       0.000    
   9   5.0000E-10  5.2000E-09  2.1000E-09  1.2000E-09  5.0000E-09   0.000       0.000       0.000       0.000       0.000    
  10   5.0000E-10  5.2000E-09  2.1000E-09  1.2000E-09  5.8000E-09   0.000       0.000       0.000       0.000       0.000    
  11   1.0000E-10  1.1000E-09  1.1000E-09  1.2000E-09  5.0000E-09   0.000       0.000       0.000       0.000       0.000    
  12   1.1000E-09  1.1000E-09  1.1000E-09  1.1000E-09  2.0000E-09   0.000       0.000       0.000       0.000       0.000    
  13   1.1000E-09  2.2000E-09  2.2000E-09  2.1000E-09  1.0000E-09   0.000       0.000       0.000       0.000       0.000    
  14   2.0000E-10  5.5000E-09  5.5000E-09  5.2000E-09  1.0000E-09   0.000       0.000       0.000       0.000       0.000    
  15    0.000      8.8000E-09  8.8000E-09   0.000       0.000       0.000       0.000       0.000       0.000       0.000    

                  ET RATE =  5.000000E-08

 USING ET EXTINCTION DEPTH FROM PREVIOUS STRESS PERIOD. CURRENT PERIOD IS:      42

 USING EXTINCTION WATER CONTENT FROM PREVIOUS STRESS PERIOD. CURRENT PERIOD IS:      42

 USING AIR ENTRY PRESSURE FROM PREVIOUS STRESS PERIOD. CURRENT PERIOD IS:      42

 USING ROOT PRESSURE HEAD FROM PREVIOUS STRESS PERIOD. CURRENT PERIOD IS:      42

 USING ROOT ACTIVITY FROM PREVIOUS STRESS PERIOD. CURRENT PERIOD IS:      42

 PROCESSING AG STRESS PERIOD DATA

 READING AG STRESS PERIOD DATA

 READING IRRIGATION WELL

 END PROCESSING AG STRESS PERIOD DATA OPTIONS
 
 SOLVING FOR HEAD 
                                                   Max.-Head-Change                         Max.-Flux-Residual
  Residual-Control   Outer-Iter.   Inner-Iter.     Column Row Layer    Maximum-Head-Change  Column Row Layer    Maximum-Flux-Residual          L2-NORM 
          0                 1           2             5    7     1      -0.1174622627E-01       5    7    1        -0.6227163415E+00      0.1662112514E+01
          0                 2           2             5    7     1       0.1142452002E-02       5    7    1         0.6227164741E-01      0.1659588843E+00
          0                 3           1             5    7     1      -0.7779677601E-04       5    7    1        -0.4359017097E-02      0.1161755467E-01

    ------------------------------------------------
       NWT REQUIRED            3 OUTER ITERATIONS 
       AND A TOTAL OF          5 INNER ITERATIONS.
    ------------------------------------------------

 NO OUTPUT CONTROL FOR STRESS PERIOD   42   TIME STEP    1
 
 SOLVING FOR HEAD 
                                                   Max.-Head-Change                         Max.-Flux-Residual
  Residual-Control   Outer-Iter.   Inner-Iter.     Column Row Layer    Maximum-Head-Change  Column Row Layer    Maximum-Flux-Residual          L2-NORM 
          0                 1           2             4    7     1      -0.1148596226E-01       4    7    1        -0.6019659228E+00      0.1599322074E+01
          0                 2           2             4    7     1       0.1117270729E-02       4    7    1         0.6019658557E-01      0.1599306334E+00
          0                 3           1             4    7     1      -0.7608199567E-04       4    7    1        -0.4213762875E-02      0.1119542333E-01

    ------------------------------------------------
       NWT REQUIRED            3 OUTER ITERATIONS 
       AND A TOTAL OF          5 INNER ITERATIONS.
    ------------------------------------------------

 NO OUTPUT CONTROL FOR STRESS PERIOD   42   TIME STEP    2
 
 SOLVING FOR HEAD 
                                                   Max.-Head-Change                         Max.-Flux-Residual
  Residual-Control   Outer-Iter.   Inner-Iter.     Column Row Layer    Maximum-Head-Change  Column Row Layer    Maximum-Flux-Residual          L2-NORM 
          0                 1           2             4    7     1      -0.1138224370E-01       4    7    1        -0.5967971756E+00      0.1564835842E+01
          0                 2           2             4    7     1       0.1107181603E-02       4    7    1         0.5967970111E-01      0.1564812050E+00
          0                 3           1             4    7     1      -0.7539496476E-04       4    7    1        -0.4177581038E-02      0.1095393340E-01

    ------------------------------------------------
       NWT REQUIRED            3 OUTER ITERATIONS 
       AND A TOTAL OF          5 INNER ITERATIONS.
    ------------------------------------------------

 NO OUTPUT CONTROL FOR STRESS PERIOD   42   TIME STEP    3
 
 SOLVING FOR HEAD 
                                                   Max.-Head-Change                         Max.-Flux-Residual
  Residual-Control   Outer-Iter.   Inner-Iter.     Column Row Layer    Maximum-Head-Change  Column Row Layer    Maximum-Flux-Residual          L2-NORM 
          0                 1           2             4    7     1      -0.1127479287E-01       4    7    1        -0.5914116762E+00      0.1531395004E+01
          0                 2           2             4    7     1       0.1096729441E-02       4    7    1         0.5914114240E-01      0.1531374968E+00
          0                 3           1             4    7     1      -0.7468321285E-04       4    7    1        -0.4139881993E-02      0.1071981458E-01

    ------------------------------------------------
       NWT REQUIRED            3 OUTER ITERATIONS 
       AND A TOTAL OF          5 INNER ITERATIONS.
    ------------------------------------------------

 NO OUTPUT CONTROL FOR STRESS PERIOD   42   TIME STEP    4
 
 SOLVING FOR HEAD 
                                                   Max.-Head-Change                         Max.-Flux-Residual
  Residual-Control   Outer-Iter.   Inner-Iter.     Column Row Layer    Maximum-Head-Change  Column Row Layer    Maximum-Flux-Residual          L2-NORM 
          0                 1           2             4    7     1      -0.1116390042E-01       4    7    1        -0.5858254618E+00      0.1499068103E+01
          0                 2           2             4    7     1       0.1085942518E-02       4    7    1         0.5858251317E-01      0.1499050896E+00
          0                 3           1             4    7     1      -0.7394866422E-04       4    7    1        -0.4100778011E-02      0.1049353435E-01

    ------------------------------------------------
       NWT REQUIRED            3 OUTER ITERATIONS 
       AND A TOTAL OF          5 INNER ITERATIONS.
    ------------------------------------------------

 NO OUTPUT CONTROL FOR STRESS PERIOD   42   TIME STEP    5
 
 SOLVING FOR HEAD 
                                                   Max.-Head-Change                         Max.-Flux-Residual
  Residual-Control   Outer-Iter.   Inner-Iter.     Column Row Layer    Maximum-Head-Change  Column Row Layer    Maximum-Flux-Residual          L2-NORM 
          0                 1           2             4    7     1      -0.1104996201E-01       4    7    1        -0.5800608087E+00      0.1467863380E+01
          0                 2           2             4    7     1       0.1074859318E-02       4    7    1         0.5800604088E-01      0.1467848809E+00
          0                 3           1             4    7     1      -0.7319394061E-04       4    7    1        -0.4060425003E-02      0.1027506417E-01

    ------------------------------------------------
       NWT REQUIRED            3 OUTER ITERATIONS 
       AND A TOTAL OF          5 INNER ITERATIONS.
    ------------------------------------------------

 NO OUTPUT CONTROL FOR STRESS PERIOD   42   TIME STEP    6
 
 SOLVING FOR HEAD 
                                                   Max.-Head-Change                         Max.-Flux-Residual
  Residual-Control   Outer-Iter.   Inner-Iter.     Column Row Layer    Maximum-Head-Change  Column Row Layer    Maximum-Flux-Residual          L2-NORM 
          0                 1           2             4    7     1      -0.1093347969E-01       4    7    1        -0.5741455553E+00      0.1437770531E+01
          0                 2           2             4    7     1       0.1063528677E-02       4    7    1         0.5741450936E-01      0.1437757811E+00
          0                 3           1             4    7     1      -0.7242236693E-04       4    7    1        -0.4019017836E-02      0.1006475736E-01

    ------------------------------------------------
       NWT REQUIRED            3 OUTER ITERATIONS 
       AND A TOTAL OF          5 INNER ITERATIONS.
    ------------------------------------------------

 NO OUTPUT CONTROL FOR STRESS PERIOD   42   TIME STEP    7
 
 SOLVING FOR HEAD 
                                                   Max.-Head-Change                         Max.-Flux-Residual
  Residual-Control   Outer-Iter.   Inner-Iter.     Column Row Layer    Maximum-Head-Change  Column Row Layer    Maximum-Flux-Residual          L2-NORM 
          0                 1           2             4    7     1      -0.1081466026E-01       4    7    1        -0.5680909641E+00      0.1408767025E+01
          0                 2           2             4    7     1       0.1051970708E-02       4    7    1         0.5680904477E-01      0.1408756074E+00
          0                 3           1             4    7     1      -0.7163531257E-04       4    7    1        -0.3976635330E-02      0.9861411273E-02

    ------------------------------------------------
       NWT REQUIRED            3 OUTER ITERATIONS 
       AND A TOTAL OF          5 INNER ITERATIONS.
    ------------------------------------------------

 NO OUTPUT CONTROL FOR STRESS PERIOD   42   TIME STEP    8
 
 SOLVING FOR HEAD 
                                                   Max.-Head-Change                         Max.-Flux-Residual
  Residual-Control   Outer-Iter.   Inner-Iter.     Column Row Layer    Maximum-Head-Change  Column Row Layer    Maximum-Flux-Residual          L2-NORM 
          0                 1           2             4    7     1      -0.1069383435E-01       4    7    1        -0.5619153199E+00      0.1380818367E+01
          0                 2           2             4    7     1       0.1040217573E-02       4    7    1         0.5619147554E-01      0.1380808904E+00
          0                 3           1             4    7     1      -0.7083496841E-04       4    7    1        -0.3933405520E-02      0.9665723301E-02

    ------------------------------------------------
       NWT REQUIRED            3 OUTER ITERATIONS 
       AND A TOTAL OF          5 INNER ITERATIONS.
    ------------------------------------------------

 NO OUTPUT CONTROL FOR STRESS PERIOD   42   TIME STEP    9
 
 SOLVING FOR HEAD 
                                                   Max.-Head-Change                         Max.-Flux-Residual
  Residual-Control   Outer-Iter.   Inner-Iter.     Column Row Layer    Maximum-Head-Change  Column Row Layer    Maximum-Flux-Residual          L2-NORM 
          0                 1           2             4    7     1      -0.1057130428E-01       4    7    1        -0.5556357657E+00      0.1353886224E+01
          0                 2           2             4    7     1       0.1028298681E-02       4    7    1         0.5556351595E-01      0.1353877230E+00
          0                 3           1             4    7     1      -0.7002333683E-04       4    7    1        -0.3889448390E-02      0.9477207722E-02

    ------------------------------------------------
       NWT REQUIRED            3 OUTER ITERATIONS 
       AND A TOTAL OF          5 INNER ITERATIONS.
    ------------------------------------------------

 NO OUTPUT CONTROL FOR STRESS PERIOD   42   TIME STEP   10
 
 SOLVING FOR HEAD 
                                                   Max.-Head-Change                         Max.-Flux-Residual
  Residual-Control   Outer-Iter.   Inner-Iter.     Column Row Layer    Maximum-Head-Change  Column Row Layer    Maximum-Flux-Residual          L2-NORM 
          0                 1           2             4    7     1      -0.1044748420E-01       4    7    1        -0.5492749423E+00      0.1327930696E+01
          0                 2           2             4    7     1       0.1016254313E-02       4    7    1         0.5492742998E-01      0.1327923231E+00
          0                 3           1             4    7     1      -0.6920316040E-04       4    7    1        -0.3844922368E-02      0.9295507149E-02

    ------------------------------------------------
       NWT REQUIRED            3 OUTER ITERATIONS 
       AND A TOTAL OF          5 INNER ITERATIONS.
    ------------------------------------------------

 NO OUTPUT CONTROL FOR STRESS PERIOD   42   TIME STEP   11
 
 SOLVING FOR HEAD 
                                                   Max.-Head-Change                         Max.-Flux-Residual
  Residual-Control   Outer-Iter.   Inner-Iter.     Column Row Layer    Maximum-Head-Change  Column Row Layer    Maximum-Flux-Residual          L2-NORM 
          0                 1           2             4    7     1      -0.1032236505E-01       4    7    1        -0.5428328291E+00      0.1302909015E+01
          0                 2           2             4    7     1       0.1004083587E-02       4    7    1         0.5428321555E-01      0.1302902446E+00
          0                 3           1             4    7     1      -0.6837437959E-04       4    7    1        -0.3799827369E-02      0.9120366959E-02

    ------------------------------------------------
       NWT REQUIRED            3 OUTER ITERATIONS 
       AND A TOTAL OF          5 INNER ITERATIONS.
    ------------------------------------------------

 NO OUTPUT CONTROL FOR STRESS PERIOD   42   TIME STEP   12
 
 SOLVING FOR HEAD 
                                                   Max.-Head-Change                         Max.-Flux-Residual
  Residual-Control   Outer-Iter.   Inner-Iter.     Column Row Layer    Maximum-Head-Change  Column Row Layer    Maximum-Flux-Residual          L2-NORM 
          0                 1           2             4    7     1      -0.1019647179E-01       4    7    1        -0.5363380105E+00      0.1278791287E+01
          0                 2           2             4    7     1       0.9918375694E-03       4    7    1         0.5363373104E-01      0.1278785531E+00
          0                 3           1             4    7     1      -0.6754047138E-04       4    7    1        -0.3754363448E-02      0.8951529981E-02

    ------------------------------------------------
       NWT REQUIRED            3 OUTER ITERATIONS 
       AND A TOTAL OF          5 INNER ITERATIONS.
    ------------------------------------------------

 NO OUTPUT CONTROL FOR STRESS PERIOD   42   TIME STEP   13
 
 SOLVING FOR HEAD 
                                                   Max.-Head-Change                         Max.-Flux-Residual
  Residual-Control   Outer-Iter.   Inner-Iter.     Column Row Layer    Maximum-Head-Change  Column Row Layer    Maximum-Flux-Residual          L2-NORM 
          0                 1           2             4    7     1      -0.1006988262E-01       4    7    1        -0.5297954980E+00      0.1255523819E+01
          0                 2           2             4    7     1       0.9795238646E-03       4    7    1         0.5297947758E-01      0.1255518397E+00
          0                 3           1             4    7     1      -0.6670195431E-04       4    7    1        -0.3708565722E-02      0.8788636423E-02

    ------------------------------------------------
       NWT REQUIRED            3 OUTER ITERATIONS 
       AND A TOTAL OF          5 INNER ITERATIONS.
    ------------------------------------------------

 NO OUTPUT CONTROL FOR STRESS PERIOD   42   TIME STEP   14
 
 SOLVING FOR HEAD 
                                                   Max.-Head-Change                         Max.-Flux-Residual
  Residual-Control   Outer-Iter.   Inner-Iter.     Column Row Layer    Maximum-Head-Change  Column Row Layer    Maximum-Flux-Residual          L2-NORM 
          0                 1           2             4    7     1      -0.9942820016E-02       4    7    1        -0.5232171449E+00      0.1233086897E+01
          0                 2           2             4    7     1       0.9671641136E-03       4    7    1         0.5232164046E-01      0.1233082139E+00
          0                 3           1             4    7     1      -0.6586030108E-04       4    7    1        -0.3662517104E-02      0.8631594149E-02

    ------------------------------------------------
       NWT REQUIRED            3 OUTER ITERATIONS 
       AND A TOTAL OF          5 INNER ITERATIONS.
    ------------------------------------------------

 NO OUTPUT CONTROL FOR STRESS PERIOD   42   TIME STEP   15
 
 SOLVING FOR HEAD 
                                                   Max.-Head-Change                         Max.-Flux-Residual
  Residual-Control   Outer-Iter.   Inner-Iter.     Column Row Layer    Maximum-Head-Change  Column Row Layer    Maximum-Flux-Residual          L2-NORM 
          0                 1           2             4    7     1      -0.9815474062E-02       4    7    1        -0.5166141296E+00      0.1211428809E+01
          0                 2           2             4    7     1       0.9547011205E-03       4    7    1         0.5166133746E-01      0.1209990656E+00
          0                 3           1             4    7     1      -0.6501161782E-04       4    7    1        -0.3616295910E-02      0.8469923158E-02

    ------------------------------------------------
       NWT REQUIRED            3 OUTER ITERATIONS 
       AND A TOTAL OF          5 INNER ITERATIONS.
    ------------------------------------------------

 NO OUTPUT CONTROL FOR STRESS PERIOD   42   TIME STEP   16
 
 SOLVING FOR HEAD 
                                                   Max.-Head-Change                         Max.-Flux-Residual
  Residual-Control   Outer-Iter.   Inner-Iter.     Column Row Layer    Maximum-Head-Change  Column Row Layer    Maximum-Flux-Residual          L2-NORM 
          0                 1           2             4    7     1      -0.9688267391E-02       4    7    1        -0.5100005681E+00      0.1190651029E+01
          0                 2           2             4    7     1       0.9424030699E-03       4    7    1         0.5099998037E-01      0.1190647161E+00
          0                 3           1             4    7     1      -0.6417416626E-04       4    7    1        -0.3570000886E-02      0.8334547632E-02

    ------------------------------------------------
       NWT REQUIRED            3 OUTER ITERATIONS 
       AND A TOTAL OF          5 INNER ITERATIONS.
    ------------------------------------------------

 NO OUTPUT CONTROL FOR STRESS PERIOD   42   TIME STEP   17
 
 SOLVING FOR HEAD 
                                                   Max.-Head-Change                         Max.-Flux-Residual
  Residual-Control   Outer-Iter.   Inner-Iter.     Column Row Layer    Maximum-Head-Change  Column Row Layer    Maximum-Flux-Residual          L2-NORM 
          0                 1           2             4    7     1      -0.9561253782E-02       4    7    1        -0.5033935099E+00      0.1170600938E+01
          0                 2           2             4    7     1       0.9300480988E-03       4    7    1         0.5033927375E-01      0.1170597373E+00
          0                 3           1             4    7     1      -0.6333283869E-04       4    7    1        -0.3523751427E-02      0.8194178736E-02

    ------------------------------------------------
       NWT REQUIRED            3 OUTER ITERATIONS 
       AND A TOTAL OF          5 INNER ITERATIONS.
    ------------------------------------------------

 NO OUTPUT CONTROL FOR STRESS PERIOD   42   TIME STEP   18
 
 SOLVING FOR HEAD 
                                                   Max.-Head-Change                         Max.-Flux-Residual
  Residual-Control   Outer-Iter.   Inner-Iter.     Column Row Layer    Maximum-Head-Change  Column Row Layer    Maximum-Flux-Residual          L2-NORM 
          0                 1           2             4    7     1      -0.9434383333E-02       4    7    1        -0.4967857235E+00      0.1151230088E+01
          0                 2           2             4    7     1       0.9177070579E-03       4    7    1         0.4967849464E-01      0.1151226919E+00
          0                 3           1             4    7     1      -0.6249245959E-04       4    7    1        -0.3477496872E-02      0.8058591074E-02

    ------------------------------------------------
       NWT REQUIRED            3 OUTER ITERATIONS 
       AND A TOTAL OF          5 INNER ITERATIONS.
    ------------------------------------------------

 NO OUTPUT CONTROL FOR STRESS PERIOD   42   TIME STEP   19
 
 SOLVING FOR HEAD 
                                                   Max.-Head-Change                         Max.-Flux-Residual
  Residual-Control   Outer-Iter.   Inner-Iter.     Column Row Layer    Maximum-Head-Change  Column Row Layer    Maximum-Flux-Residual          L2-NORM 
          0                 1           2             4    7     1      -0.9308067627E-02       4    7    1        -0.4902001261E+00      0.1132506788E+01
          0                 2           2             4    7     1       0.9054199807E-03       4    7    1         0.4901993461E-01      0.1132503755E+00
          0                 3           1             4    7     1      -0.6165575508E-04       4    7    1        -0.3431397646E-02      0.7927518917E-02

    ------------------------------------------------
       NWT REQUIRED            3 OUTER ITERATIONS 
       AND A TOTAL OF          5 INNER ITERATIONS.
    ------------------------------------------------

 NO OUTPUT CONTROL FOR STRESS PERIOD   42   TIME STEP   20
 
 SOLVING FOR HEAD 
                                                   Max.-Head-Change                         Max.-Flux-Residual
  Residual-Control   Outer-Iter.   Inner-Iter.     Column Row Layer    Maximum-Head-Change  Column Row Layer    Maximum-Flux-Residual          L2-NORM 
          0                 1           2             4    7     1      -0.9182154683E-02       4    7    1        -0.4836286506E+00      0.1114409394E+01
          0                 2           2             4    7     1       0.8931720846E-03       4    7    1         0.4836278700E-01      0.1114406089E+00
          0                 3           1             4    7     1      -0.6082171859E-04       4    7    1        -0.3385397284E-02      0.7800903196E-02

    ------------------------------------------------
       NWT REQUIRED            3 OUTER ITERATIONS 
       AND A TOTAL OF          5 INNER ITERATIONS.
    ------------------------------------------------

 NO OUTPUT CONTROL FOR STRESS PERIOD   42   TIME STEP   21
 
 SOLVING FOR HEAD 
                                                   Max.-Head-Change                         Max.-Flux-Residual
  Residual-Control   Outer-Iter.   Inner-Iter.     Column Row Layer    Maximum-Head-Change  Column Row Layer    Maximum-Flux-Residual          L2-NORM 
          0                 1           2             4    7     1      -0.9057029252E-02       4    7    1        -0.4770925850E+00      0.1096902708E+01
          0                 2           2             4    7     1       0.8810007947E-03       4    7    1         0.4770918054E-01      0.1096900064E+00
          0                 3           1             4    7     1      -0.5999289921E-04       4    7    1        -0.3339644812E-02      0.7678284796E-02

    ------------------------------------------------
       NWT REQUIRED            3 OUTER ITERATIONS 
       AND A TOTAL OF          5 INNER ITERATIONS.
    ------------------------------------------------

 NO OUTPUT CONTROL FOR STRESS PERIOD   42   TIME STEP   22
 
 SOLVING FOR HEAD 
                                                   Max.-Head-Change                         Max.-Flux-Residual
  Residual-Control   Outer-Iter.   Inner-Iter.     Column Row Layer    Maximum-Head-Change  Column Row Layer    Maximum-Flux-Residual          L2-NORM 
          0                 1           2             4    7     1      -0.8932660239E-02       4    7    1        -0.4705902703E+00      0.1079965860E+01
          0                 2           2             4    7     1       0.8689030859E-03       4    7    1         0.4705894934E-01      0.1079963013E+00
          0                 3           1             4    7     1      -0.5916908996E-04       4    7    1        -0.3294128602E-02      0.7559731660E-02

    ------------------------------------------------
       NWT REQUIRED            3 OUTER ITERATIONS 
       AND A TOTAL OF          5 INNER ITERATIONS.
    ------------------------------------------------

 NO OUTPUT CONTROL FOR STRESS PERIOD   42   TIME STEP   23
 
 SOLVING FOR HEAD 
                                                   Max.-Head-Change                         Max.-Flux-Residual
  Residual-Control   Outer-Iter.   Inner-Iter.     Column Row Layer    Maximum-Head-Change  Column Row Layer    Maximum-Flux-Residual          L2-NORM 
          0                 1           2             4    7     1      -0.8809137232E-02       4    7    1        -0.4641269392E+00      0.1063580675E+01
          0                 2           2             4    7     1       0.8568876732E-03       4    7    1         0.4641261667E-01      0.1063578341E+00
          0                 3           1             4    7     1      -0.5835088502E-04       4    7    1        -0.3248885305E-02      0.7445029018E-02

    ------------------------------------------------
       NWT REQUIRED            3 OUTER ITERATIONS 
       AND A TOTAL OF          5 INNER ITERATIONS.
    ------------------------------------------------

 NO OUTPUT CONTROL FOR STRESS PERIOD   42   TIME STEP   24
 
 SOLVING FOR HEAD 
                                                   Max.-Head-Change                         Max.-Flux-Residual
  Residual-Control   Outer-Iter.   Inner-Iter.     Column Row Layer    Maximum-Head-Change  Column Row Layer    Maximum-Flux-Residual          L2-NORM 
          0                 1           2             4    7     1      -0.8686683383E-02       4    7    1        -0.4577149154E+00      0.1047713607E+01
          0                 2           2             4    7     1       0.8449762615E-03       4    7    1         0.4577141482E-01      0.1047711168E+00
          0                 3           1             4    7     1      -0.5753976169E-04       4    7    1        -0.3204001152E-02      0.7333951238E-02

    ------------------------------------------------
       NWT REQUIRED            3 OUTER ITERATIONS 
       AND A TOTAL OF          5 INNER ITERATIONS.
    ------------------------------------------------

 NO OUTPUT CONTROL FOR STRESS PERIOD   42   TIME STEP   25
 
 SOLVING FOR HEAD 
                                                   Max.-Head-Change                         Max.-Flux-Residual
  Residual-Control   Outer-Iter.   Inner-Iter.     Column Row Layer    Maximum-Head-Change  Column Row Layer    Maximum-Flux-Residual          L2-NORM 
          0                 1           2             4    7     1      -0.8565102838E-02       4    7    1        -0.4513438054E+00      0.1032345993E+01
          0                 2           2             4    7     1       0.8331498007E-03       4    7    1         0.4513430450E-01      0.1032381322E+00
          0                 3           1             4    7     1      -0.5673442338E-04       4    7    1        -0.3159403393E-02      0.7226663081E-02

    ------------------------------------------------
       NWT REQUIRED            3 OUTER ITERATIONS 
       AND A TOTAL OF          5 INNER ITERATIONS.
    ------------------------------------------------

 NO OUTPUT CONTROL FOR STRESS PERIOD   42   TIME STEP   26
 
 SOLVING FOR HEAD 
                                                   Max.-Head-Change                         Max.-Flux-Residual
  Residual-Control   Outer-Iter.   Inner-Iter.     Column Row Layer    Maximum-Head-Change  Column Row Layer    Maximum-Flux-Residual          L2-NORM 
          0                 1           2             4    7     1      -0.8444737722E-02       4    7    1        -0.4450323813E+00      0.1017468796E+01
          0                 2           2             4    7     1       0.8214415691E-03       4    7    1         0.4450316285E-01      0.1017466602E+00
          0                 3           1             4    7     1      -0.5593713621E-04       4    7    1        -0.3115223461E-02      0.7122270653E-02

    ------------------------------------------------
       NWT REQUIRED            3 OUTER ITERATIONS 
       AND A TOTAL OF          5 INNER ITERATIONS.
    ------------------------------------------------

 NO OUTPUT CONTROL FOR STRESS PERIOD   42   TIME STEP   27
 
 SOLVING FOR HEAD 
                                                   Max.-Head-Change                         Max.-Flux-Residual
  Residual-Control   Outer-Iter.   Inner-Iter.     Column Row Layer    Maximum-Head-Change  Column Row Layer    Maximum-Flux-Residual          L2-NORM 
          0                 1           2             4    7     1      -0.8325381355E-02       4    7    1        -0.4387694553E+00      0.1003060551E+01
          0                 2           2             4    7     1       0.8098314627E-03       4    7    1         0.4387687112E-01      0.1003051626E+00
          0                 3           1             4    7     1      -0.5514653104E-04       4    7    1        -0.3071383003E-02      0.7021317113E-02

    ------------------------------------------------
       NWT REQUIRED            3 OUTER ITERATIONS 
       AND A TOTAL OF          5 INNER ITERATIONS.
    ------------------------------------------------

 NO OUTPUT CONTROL FOR STRESS PERIOD   42   TIME STEP   28
 
 SOLVING FOR HEAD 
                                                   Max.-Head-Change                         Max.-Flux-Residual
  Residual-Control   Outer-Iter.   Inner-Iter.     Column Row Layer    Maximum-Head-Change  Column Row Layer    Maximum-Flux-Residual          L2-NORM 
          0                 1           2             4    7     1      -0.8207365703E-02       4    7    1        -0.4325735948E+00      0.9891126080E+00
          0                 2           2             4    7     1       0.7983517723E-03       4    7    1         0.4325728600E-01      0.9890943240E-01
          0                 3           1             4    7     1      -0.5436480656E-04       4    7    1        -0.3028012027E-02      0.6923591990E-02

    ------------------------------------------------
       NWT REQUIRED            3 OUTER ITERATIONS 
       AND A TOTAL OF          5 INNER ITERATIONS.
    ------------------------------------------------

 NO OUTPUT CONTROL FOR STRESS PERIOD   42   TIME STEP   29
 
 SOLVING FOR HEAD 
                                                   Max.-Head-Change                         Max.-Flux-Residual
  Residual-Control   Outer-Iter.   Inner-Iter.     Column Row Layer    Maximum-Head-Change  Column Row Layer    Maximum-Flux-Residual          L2-NORM 
          0                 1           2             4    7     1      -0.8090730730E-02       4    7    1        -0.4264470122E+00      0.9755688037E+00
          0                 2           2             4    7     1       0.7870063854E-03       4    7    1         0.4264462875E-01      0.9755526705E-01
          0                 3           1             4    7     1      -0.5359222749E-04       4    7    1        -0.2985125986E-02      0.6828826042E-02

    ------------------------------------------------
       NWT REQUIRED            3 OUTER ITERATIONS 
       AND A TOTAL OF          5 INNER ITERATIONS.
    ------------------------------------------------

 NO OUTPUT CONTROL FOR STRESS PERIOD   42   TIME STEP   30



 STREAM LISTING     PERIOD     42   STEP       30

 LAYER ROW COL. STREAM  RCH.  FLOW INTO     FLOW TO   FLOW OUT OF   OVRLND.     DIRECT     STREAM       STREAM     STREAM     STREAM   STREAMBED  STREAMBED
                SEG.NO.  NO.  STRM. RCH.    AQUIFER    STRM. RCH.    RUNOFF     PRECIP       ET          HEAD       DEPTH      WIDTH   CONDCTNC.   GRADIENT

   1    1    1     1     1    1.9000E+01  2.1427E-01   1.8786E+01  0.000E+00  0.000E+00  0.000E+00  1.09413E+03  1.082E+00  1.166E+01  5.249E-02  1.361E+00
   1    2    2     1     2    1.8786E+01  3.3054E-01   1.8455E+01  0.000E+00  0.000E+00  0.000E+00  1.08914E+03  1.077E+00  1.158E+01  8.107E-02  1.359E+00
   1    3    3     1     3    1.8455E+01  2.8064E-01   1.8175E+01  0.000E+00  0.000E+00  0.000E+00  1.08349E+03  1.072E+00  1.149E+01  6.892E-02  1.357E+00
   1    3    4     1     4    1.8175E+01  2.5740E-01   1.7917E+01  0.000E+00  0.000E+00  0.000E+00  1.07848E+03  1.068E+00  1.140E+01  6.328E-02  1.356E+00
   1    4    5     2     1    1.5917E+01  3.0542E-01   1.5612E+01  0.000E+00  0.000E+00  0.000E+00  1.07285E+03  9.157E-01  1.200E+01  7.800E-02  1.305E+00
   1    5    6     2     2    1.5612E+01  2.3438E-01   1.5377E+01  0.000E+00  0.000E+00  0.000E+00  1.06742E+03  9.063E-01  1.200E+01  6.000E-02  1.302E+00
   1    6    6     2     3    1.5377E+01  2.3388E-01   1.5143E+01  0.000E+00  0.000E+00  0.000E+00  1.06269E+03  8.980E-01  1.200E+01  6.000E-02  1.299E+00
   1    7    6     2     4    1.5143E+01  2.3338E-01   1.4910E+01  0.000E+00  0.000E+00  0.000E+00  1.05797E+03  8.897E-01  1.200E+01  6.000E-02  1.297E+00
   1    8    6     2     5    1.4910E+01  2.3289E-01   1.4677E+01  0.000E+00  0.000E+00  0.000E+00  1.05324E+03  8.814E-01  1.200E+01  6.000E-02  1.294E+00
   1    3    5     3     1    2.0000E+00  2.8252E-01   1.7175E+00  0.000E+00  0.000E+00  0.000E+00  1.07555E+03  1.909E+00  9.636E+00  7.227E-02  1.955E+00
   1    3    6     3     2    1.7175E+00  2.4905E-01   1.4684E+00  0.000E+00  0.000E+00  0.000E+00  1.07264E+03  1.727E+00  8.909E+00  6.682E-02  1.864E+00
   1    3    7     3     3    1.4684E+00  1.9718E-01   1.2712E+00  0.000E+00  0.000E+00  0.000E+00  1.06987E+03  1.555E+00  8.218E+00  5.547E-02  1.777E+00
   1    4    8     3     4    1.2712E+00  2.2567E-01   1.0456E+00  0.000E+00  0.000E+00  0.000E+00  1.06682E+03  1.364E+00  7.455E+00  6.709E-02  1.682E+00
   1    5    8     3     5    1.0456E+00  1.5790E-01   8.8768E-01  0.000E+00  0.000E+00  0.000E+00  1.06362E+03  1.164E+00  6.655E+00  4.991E-02  1.582E+00
   1    6    8     3     6    8.8768E-01  5.5980E-02   8.3170E-01  0.000E+00  0.000E+00  0.000E+00  1.06158E+03  1.036E+00  6.145E+00  1.844E-02  1.518E+00
   1    5   10     4     1    1.0000E+01  9.0919E-02   9.9091E+00  0.000E+00  0.000E+00  0.000E+00  1.07836E+03  6.368E-01  1.000E+01  2.500E-02  1.212E+00
   1    5    9     4     2    9.9091E+00  1.8158E-01   9.7275E+00  0.000E+00  0.000E+00  0.000E+00  1.07154E+03  6.315E-01  1.000E+01  5.000E-02  1.211E+00
   1    6    8     4     3    9.7275E+00  1.2689E-01   9.6006E+00  0.000E+00  0.000E+00  0.000E+00  1.06381E+03  6.256E-01  1.000E+01  3.500E-02  1.209E+00
   1    6    8     5     1    1.0432E+01  2.2686E-01   1.0205E+01  0.000E+00  0.000E+00  0.000E+00  1.05868E+03  6.790E-01  1.542E+01  6.166E-02  1.226E+00
   1    7    7     5     2    1.0205E+01  2.7894E-01   9.9265E+00  0.000E+00  0.000E+00  0.000E+00  1.05417E+03  6.732E-01  1.519E+01  7.594E-02  1.224E+00
   1    8    7     5     3    9.9265E+00  1.9221E-01   9.7343E+00  0.000E+00  0.000E+00  0.000E+00  1.04992E+03  6.676E-01  1.497E+01  5.241E-02  1.223E+00
   1    8    6     5     4    9.7343E+00  1.3577E-01   9.5985E+00  0.000E+00  0.000E+00  0.000E+00  1.04691E+03  6.637E-01  1.482E+01  3.706E-02  1.221E+00
   1    9    6     6     1    2.4276E+01  2.5176E-01   2.4024E+01  0.000E+00  0.000E+00  0.000E+00  1.04392E+03  1.196E+00  1.200E+01  6.000E-02  1.399E+00
   1   10    7     6     2    2.4024E+01  2.5131E-01   2.3773E+01  0.000E+00  0.000E+00  0.000E+00  1.03937E+03  1.188E+00  1.200E+01  6.000E-02  1.396E+00
   1   11    7     6     3    2.3773E+01  2.5086E-01   2.3522E+01  0.000E+00  0.000E+00  0.000E+00  1.03482E+03  1.181E+00  1.200E+01  6.000E-02  1.394E+00
   1   12    7     6     4    2.3522E+01  2.5041E-01   2.3271E+01  0.000E+00  0.000E+00  0.000E+00  1.03026E+03  1.173E+00  1.200E+01  6.000E-02  1.391E+00
   1   13    7     6     5    2.3271E+01  1.0728E-02   2.3261E+01  0.000E+00  0.000E+00  0.000E+00  1.02708E+03  1.170E+00  1.200E+01  2.400E-02  1.490E-01
   1   14    9     7     1    1.5000E+02  1.3689E+00   1.4863E+02  0.000E+00  0.000E+00  0.000E+00  1.03987E+03  2.288E+00  5.529E+01  5.593E-01  8.159E-01
   1   13    8     7     2    1.4863E+02  1.9657E+00   1.4667E+02  0.000E+00  0.000E+00  0.000E+00  1.03478E+03  2.279E+00  5.525E+01  6.147E-01  1.066E+00
   1   13    7     7     3    1.4667E+02  1.7068E+00   1.4496E+02  0.000E+00  0.000E+00  0.000E+00  1.02969E+03  2.269E+00  5.521E+01  5.584E-01  1.019E+00
   1   13    6     8     1    1.6822E+02  1.1419E+00   1.6708E+02  0.000E+00  0.000E+00  0.000E+00  1.02481E+03  2.937E+00  4.258E+01  4.339E-01  8.771E-01
   1   13    5     8     2    1.6708E+02  3.7854E-01   1.6670E+02  0.000E+00  0.000E+00  0.000E+00  1.01856E+03  2.932E+00  4.251E+01  4.332E-01  2.913E-01
   1   13    4     8     3    1.6670E+02 -1.7643E+00   1.6846E+02  0.000E+00  0.000E+00  0.000E+00  1.01231E+03  2.936E+00  4.258E+01  4.339E+00 -1.355E-01
   1   13    3     8     4    1.6846E+02 -3.3197E+00   1.7178E+02  0.000E+00  0.000E+00  0.000E+00  1.00608E+03  2.953E+00  4.282E+01  4.363E+00 -2.536E-01
   1   13    2     8     5    1.7178E+02 -2.4953E+00   1.7428E+02  0.000E+00  0.000E+00  0.000E+00  9.99847E+02  2.972E+00  4.309E+01  4.391E+00 -1.894E-01
   1   13    1     8     6    1.7428E+02 -1.9613E+00   1.7624E+02  0.000E+00  0.000E+00  0.000E+00  9.94861E+02  2.986E+00  4.330E+01  2.647E+00 -2.469E-01





UNSATURATED ZONE PACKAGE VOLUMETRIC BUDGET FOR  TIME STEP    30 STRESS PERIOD   42
  ------------------------------------------------------------------------------



     CUMULATIVE VOLUMES      L**3       RATES FOR THIS TIME STEP      L**3/T
     ------------------                 ------------------------

           IN:                                      IN:
           ---                                      ---
        INFILTRATION =  1697208503.5369          INFILTRATION =          11.6005

          OUT:                                     OUT:
          ----                                     ----
              UZF ET =  1569376399.7306                UZF ET =          11.6075
        UZF RECHARGE =     1338542.5293          UZF RECHARGE =           0.0075

            IN - OUT =   126493561.2770              IN - OUT =      -1.4530E-02

          STORAGE:                                 STORAGE:
          --------                                 --------
      STORAGE CHANGE =   126495192.8952        STORAGE CHANGE =      -1.4530E-02

 PERCENT DISCREPANCY IS DIFFERENCE BETWEEN IN-OUT MINUS CHANGE IN STORAGE
 DIVIDED BY THE AVERAGE OF IN AND OUT TIMES 100

 PERCENT DISCREPANCY =          -0.00     PERCENT DISCREPANCY =           0.00






1
  VOLUMETRIC BUDGET FOR ENTIRE MODEL AT END OF TIME STEP   30, STRESS PERIOD  42
  ------------------------------------------------------------------------------

     CUMULATIVE VOLUMES      L**3       RATES FOR THIS TIME STEP      L**3/T
     ------------------                 ------------------------

           IN:                                      IN:
           ---                                      ---
               AG WELLS  =  1221875456.0000                 AG WELLS  =           7.1930
      DIVERSION SEGMENTS =           0.0000        DIVERSION SEGMENTS =           0.0000
           GW IRRIGATION =           0.0000             GW IRRIGATION =           0.0000
           SW IRRIGATION =           0.0000             SW IRRIGATION =           0.0000
        SYSTEM LOSSES GW =           0.0000          SYSTEM LOSSES GW =           0.0000
        SYSTEM LOSSES SW =           0.0000          SYSTEM LOSSES SW =           0.0000

                TOTAL IN =  1221875456.0000                  TOTAL IN =           7.1930

          OUT:                                     OUT:
          ----                                     ----
               AG WELLS  =           0.0000                 AG WELLS  =           0.0000
      DIVERSION SEGMENTS =           0.0000        DIVERSION SEGMENTS =           0.0000
           GW IRRIGATION =  1221875456.0000             GW IRRIGATION =           7.1930
           SW IRRIGATION =           0.0000             SW IRRIGATION =           0.0000
        SYSTEM LOSSES GW =           0.0000          SYSTEM LOSSES GW =           0.0000
        SYSTEM LOSSES SW =           0.0000          SYSTEM LOSSES SW =           0.0000

               TOTAL OUT =  1221875456.0000                 TOTAL OUT =           7.1930

                IN - OUT =           0.0000                  IN - OUT =           0.0000

     PERCENT DISCREPANCY =           0.00         PERCENT DISCREPANCY =           0.00



1
  VOLUMETRIC BUDGET FOR ENTIRE MODEL AT END OF TIME STEP   30, STRESS PERIOD  42
  ------------------------------------------------------------------------------

     CUMULATIVE VOLUMES      L**3       RATES FOR THIS TIME STEP      L**3/T
     ------------------                 ------------------------

           IN:                                      IN:
           ---                                      ---
             STORAGE     =  1708893440.0000               STORAGE     =           5.3123
       CONSTANT HEAD     =           0.0000         CONSTANT HEAD     =           0.0000
     HEAD DEP BOUNDS     =    30870484.0000       HEAD DEP BOUNDS     =           0.2880
      STREAM LEAKAGE     =  1320949120.0000        STREAM LEAKAGE     =          12.3012
        UZF RECHARGE     =     1338542.2500          UZF RECHARGE     =       7.5119E-03
               GW ET     =           0.0000                 GW ET     =           0.0000
     SURFACE LEAKAGE     =           0.0000       SURFACE LEAKAGE     =           0.0000
           AG WELLS      =           0.0000             AG WELLS      =           0.0000

                TOTAL IN =  3062051584.0000                  TOTAL IN =          17.9090

          OUT:                                     OUT:
          ----                                     ----
             STORAGE     =   691542208.0000               STORAGE     =           0.8853
       CONSTANT HEAD     =           0.0000         CONSTANT HEAD     =           0.0000
     HEAD DEP BOUNDS     =    31513298.0000       HEAD DEP BOUNDS     =           0.2889
      STREAM LEAKAGE     =  1099803008.0000        STREAM LEAKAGE     =           9.5406
        UZF RECHARGE     =           0.0000          UZF RECHARGE     =           0.0000
               GW ET     =    17319432.0000                 GW ET     =           0.0000
     SURFACE LEAKAGE     =           0.0000       SURFACE LEAKAGE     =           0.0000
           AG WELLS      =  1221875456.0000             AG WELLS      =           7.1930

               TOTAL OUT =  3062053376.0000                 TOTAL OUT =          17.9077

                IN - OUT =       -1792.0000                  IN - OUT =       1.2608E-03

     PERCENT DISCREPANCY =          -0.00         PERCENT DISCREPANCY =           0.01






         TIME SUMMARY AT END OF TIME STEP   30 IN STRESS PERIOD   42
                    SECONDS     MINUTES      HOURS       DAYS        YEARS
                    -----------------------------------------------------------
   TIME STEP LENGTH  87667.      1461.1      24.352      1.0147     2.77799E-03
 STRESS PERIOD TIME 2.63000E+06  43833.      730.56      30.440     8.33397E-02
         TOTAL TIME 1.07916E+08 1.79859E+06  29977.      1249.0      3.4196    
1
1
                            STRESS PERIOD NO.   43, LENGTH =   2630000.    
                            -----------------------------------------------

                              NUMBER OF TIME STEPS =    30

                               MULTIPLIER FOR DELT =     1.000

                            INITIAL TIME STEP SIZE =   87666.66    

 REUSING NON-PARAMETER GHB CELLS FROM LAST STRESS PERIOD

      2 GHB CELLS

 REUSING STREAM SEGMENT DATA FROM LAST STRESS PERIOD



            AREAL INFILTRATION RATE
 READING ON UNIT   19 WITH FORMAT: (10F4.0)            

            1           2           3           4           5           6           7           8           9          10
 ........................................................................................................................
   1   1.2000E-09   0.000       0.000       0.000       0.000       0.000       0.000       0.000       0.000       0.000    
   2   2.1000E-09  2.0000E-09  8.0000E-10  8.5000E-09   0.000       0.000       0.000       0.000       0.000       0.000    
   3   5.0000E-10  1.1000E-09  8.8000E-09  5.5000E-09   0.000       0.000       0.000       0.000       0.000       0.000    
   4   8.5000E-09  1.1000E-09  1.1000E-09  1.1000E-09  2.0000E-09   0.000       0.000       0.000       0.000       0.000    
   5   8.5000E-09  1.1000E-09  1.1000E-09  1.1000E-09  1.1000E-09   0.000       0.000       0.000       0.000       0.000    
   6   8.5000E-09  5.2000E-09  2.1000E-09  1.1000E-09  1.5000E-09   0.000       0.000       0.000       0.000       0.000    
   7   8.5000E-09  5.2000E-09  2.1000E-09  1.2000E-09  2.0000E-09   0.000       0.000       0.000       0.000       0.000    
   8   5.0000E-10  5.2000E-09  2.1000E-09  1.2000E-09  5.0000E-09   0.000       0.000       0.000       0.000       0.000    
   9   5.0000E-10  5.2000E-09  2.1000E-09  1.2000E-09  5.0000E-09   0.000       0.000       0.000       0.000       0.000    
  10   5.0000E-10  5.2000E-09  2.1000E-09  1.2000E-09  5.8000E-09   0.000       0.000       0.000       0.000       0.000    
  11   1.0000E-10  1.1000E-09  1.1000E-09  1.2000E-09  5.0000E-09   0.000       0.000       0.000       0.000       0.000    
  12   1.1000E-09  1.1000E-09  1.1000E-09  1.1000E-09  2.0000E-09   0.000       0.000       0.000       0.000       0.000    
  13   1.1000E-09  2.2000E-09  2.2000E-09  2.1000E-09  1.0000E-09   0.000       0.000       0.000       0.000       0.000    
  14   2.0000E-10  5.5000E-09  5.5000E-09  5.2000E-09  1.0000E-09   0.000       0.000       0.000       0.000       0.000    
  15    0.000      8.8000E-09  8.8000E-09   0.000       0.000       0.000       0.000       0.000       0.000       0.000    

                  ET RATE =  1.500000E-07

 USING ET EXTINCTION DEPTH FROM PREVIOUS STRESS PERIOD. CURRENT PERIOD IS:      43

 USING EXTINCTION WATER CONTENT FROM PREVIOUS STRESS PERIOD. CURRENT PERIOD IS:      43

 USING AIR ENTRY PRESSURE FROM PREVIOUS STRESS PERIOD. CURRENT PERIOD IS:      43

 USING ROOT PRESSURE HEAD FROM PREVIOUS STRESS PERIOD. CURRENT PERIOD IS:      43

 USING ROOT ACTIVITY FROM PREVIOUS STRESS PERIOD. CURRENT PERIOD IS:      43

 PROCESSING AG STRESS PERIOD DATA

 READING AG STRESS PERIOD DATA

 READING IRRIGATION WELL

 END PROCESSING AG STRESS PERIOD DATA OPTIONS
 
 SOLVING FOR HEAD 
                                                   Max.-Head-Change                         Max.-Flux-Residual
  Residual-Control   Outer-Iter.   Inner-Iter.     Column Row Layer    Maximum-Head-Change  Column Row Layer    Maximum-Flux-Residual          L2-NORM 
          0                 1           2             4    7     1      -0.5586086700E-01       4    7    1        -0.2920377735E+01      0.6951384942E+01
          0                 2           2             4    7     1       0.5433714930E-02       4    7    1         0.2920362440E+00      0.6951317242E+00
          0                 3           2             4    7     1      -0.3700160792E-03       4    7    1        -0.2044256038E-01      0.4865929552E-01
          0                 4           1             4    7     1       0.1472328498E-04       4    7    1         0.8361018258E-03      0.1990171407E-02

    ------------------------------------------------
       NWT REQUIRED            4 OUTER ITERATIONS 
       AND A TOTAL OF          7 INNER ITERATIONS.
    ------------------------------------------------

 NO OUTPUT CONTROL FOR STRESS PERIOD   43   TIME STEP    1
 
 SOLVING FOR HEAD 
                                                   Max.-Head-Change                         Max.-Flux-Residual
  Residual-Control   Outer-Iter.   Inner-Iter.     Column Row Layer    Maximum-Head-Change  Column Row Layer    Maximum-Flux-Residual          L2-NORM 
          0                 1           2             4    7     1      -0.5515173622E-01       4    7    1        -0.2884526329E+01      0.6768506147E+01
          0                 2           2             4    7     1       0.5364733653E-02       4    7    1         0.2884509512E+00      0.6768442393E+00
          0                 3           2             4    7     1      -0.3653187314E-03       4    7    1        -0.2019159123E-01      0.4737916974E-01
          0                 4           1             4    7     1       0.1453637255E-04       4    7    1         0.8258371483E-03      0.1937812888E-02

    ------------------------------------------------
       NWT REQUIRED            4 OUTER ITERATIONS 
       AND A TOTAL OF          7 INNER ITERATIONS.
    ------------------------------------------------

 NO OUTPUT CONTROL FOR STRESS PERIOD   43   TIME STEP    2
 
 SOLVING FOR HEAD 
                                                   Max.-Head-Change                         Max.-Flux-Residual
  Residual-Control   Outer-Iter.   Inner-Iter.     Column Row Layer    Maximum-Head-Change  Column Row Layer    Maximum-Flux-Residual          L2-NORM 
          0                 1           2             4    7     1      -0.5478034135E-01       4    7    1        -0.2866150600E+01      0.6654546173E+01
          0                 2           2             4    7     1       0.5328604993E-02       4    7    1         0.2866132343E+00      0.6654484632E+00
          0                 3           2             4    7     1      -0.3628585235E-03       4    7    1        -0.2006295234E-01      0.4658146257E-01
          0                 4           1             4    7     1       0.1443847863E-04       4    7    1         0.8205758054E-03      0.1905186229E-02

    ------------------------------------------------
       NWT REQUIRED            4 OUTER ITERATIONS 
       AND A TOTAL OF          7 INNER ITERATIONS.
    ------------------------------------------------

 NO OUTPUT CONTROL FOR STRESS PERIOD   43   TIME STEP    3
 
 SOLVING FOR HEAD 
                                                   Max.-Head-Change                         Max.-Flux-Residual
  Residual-Control   Outer-Iter.   Inner-Iter.     Column Row Layer    Maximum-Head-Change  Column Row Layer    Maximum-Flux-Residual          L2-NORM 
          0                 1           2             4    7     1      -0.5439238434E-01       4    7    1        -0.2846823067E+01      0.6545611155E+01
          0                 2           2             4    7     1       0.5290865536E-02       4    7    1         0.2846803539E+00      0.6545551017E+00
          0                 3           2             4    7     1      -0.3602886243E-03       4    7    1        -0.1992765186E-01      0.4581892098E-01
          0                 4           1             4    7     1       0.1433622011E-04       4    7    1         0.8150420117E-03      0.1873999109E-02

    ------------------------------------------------
       NWT REQUIRED            4 OUTER ITERATIONS 
       AND A TOTAL OF          7 INNER ITERATIONS.
    ------------------------------------------------

 NO OUTPUT CONTROL FOR STRESS PERIOD   43   TIME STEP    4
 
 SOLVING FOR HEAD 
                                                   Max.-Head-Change                         Max.-Flux-Residual
  Residual-Control   Outer-Iter.   Inner-Iter.     Column Row Layer    Maximum-Head-Change  Column Row Layer    Maximum-Flux-Residual          L2-NORM 
          0                 1           2             4    7     1      -0.5398959142E-01       4    7    1        -0.2826638947E+01      0.6441378141E+01
          0                 2           2             4    7     1       0.5251683178E-02       4    7    1         0.2826618303E+00      0.6441319190E+00
          0                 3           2             4    7     1      -0.3576204666E-03       4    7    1        -0.1978635620E-01      0.4508929683E-01
          0                 4           1             4    7     1       0.1423005151E-04       4    7    1         0.8092630021E-03      0.1844155138E-02

    ------------------------------------------------
       NWT REQUIRED            4 OUTER ITERATIONS 
       AND A TOTAL OF          7 INNER ITERATIONS.
    ------------------------------------------------

 NO OUTPUT CONTROL FOR STRESS PERIOD   43   TIME STEP    5
 
 SOLVING FOR HEAD 
                                                   Max.-Head-Change                         Max.-Flux-Residual
  Residual-Control   Outer-Iter.   Inner-Iter.     Column Row Layer    Maximum-Head-Change  Column Row Layer    Maximum-Flux-Residual          L2-NORM 
          0                 1           2             4    7     1      -0.5357356730E-01       4    7    1        -0.2805686790E+01      0.6341544422E+01
          0                 2           2             4    7     1       0.5211213989E-02       4    7    1         0.2805665174E+00      0.6341487598E+00
          0                 3           2             4    7     1      -0.3548646711E-03       4    7    1        -0.1963968517E-01      0.4439045761E-01
          0                 4           1             4    7     1       0.1412039558E-04       4    7    1         0.8032641420E-03      0.1815572811E-02

    ------------------------------------------------
       NWT REQUIRED            4 OUTER ITERATIONS 
       AND A TOTAL OF          7 INNER ITERATIONS.
    ------------------------------------------------

 NO OUTPUT CONTROL FOR STRESS PERIOD   43   TIME STEP    6
 
 SOLVING FOR HEAD 
                                                   Max.-Head-Change                         Max.-Flux-Residual
  Residual-Control   Outer-Iter.   Inner-Iter.     Column Row Layer    Maximum-Head-Change  Column Row Layer    Maximum-Flux-Residual          L2-NORM 
          0                 1           2             4    7     1      -0.5314582684E-01       4    7    1        -0.2784050277E+01      0.6245832702E+01
          0                 2           2             4    7     1       0.5169618585E-02       4    7    1         0.2784027823E+00      0.6252060268E+00
          0                 3           2             4    7     1      -0.3520321890E-03       4    7    1        -0.1948822442E-01      0.4376445594E-01
          0                 4           1             4    7     1       0.1400768865E-04       4    7    1         0.7970693850E-03      0.1789969402E-02

    ------------------------------------------------
       NWT REQUIRED            4 OUTER ITERATIONS 
       AND A TOTAL OF          7 INNER ITERATIONS.
    ------------------------------------------------

 NO OUTPUT CONTROL FOR STRESS PERIOD   43   TIME STEP    7
 
 SOLVING FOR HEAD 
                                                   Max.-Head-Change                         Max.-Flux-Residual
  Residual-Control   Outer-Iter.   Inner-Iter.     Column Row Layer    Maximum-Head-Change  Column Row Layer    Maximum-Flux-Residual          L2-NORM 
          0                 1           2             4    7     1      -0.5270772969E-01       4    7    1        -0.2761807247E+01      0.6153474961E+01
          0                 2           2             4    7     1       0.5126990182E-02       4    7    1         0.2761784073E+00      0.6153445705E+00
          0                 3           2             4    7     1      -0.3491293635E-03       4    7    1        -0.1933251879E-01      0.4307415352E-01
          0                 4           1             4    7     1       0.1389218251E-04       4    7    1         0.7907010245E-03      0.1761887134E-02

    ------------------------------------------------
       NWT REQUIRED            4 OUTER ITERATIONS 
       AND A TOTAL OF          7 INNER ITERATIONS.
    ------------------------------------------------

 NO OUTPUT CONTROL FOR STRESS PERIOD   43   TIME STEP    8
 
 SOLVING FOR HEAD 
                                                   Max.-Head-Change                         Max.-Flux-Residual
  Residual-Control   Outer-Iter.   Inner-Iter.     Column Row Layer    Maximum-Head-Change  Column Row Layer    Maximum-Flux-Residual          L2-NORM 
          0                 1           2             4    7     1      -0.5226048270E-01       4    7    1        -0.2739022248E+01      0.6064623030E+01
          0                 2           2             4    7     1       0.5083484355E-02       4    7    1         0.2738998467E+00      0.6064593757E+00
          0                 3           2             4    7     1      -0.3461667865E-03       4    7    1        -0.1917302006E-01      0.4245218794E-01
          0                 4           1             4    7     1       0.1377429876E-04       4    7    1         0.7841774984E-03      0.1736297132E-02

    ------------------------------------------------
       NWT REQUIRED            4 OUTER ITERATIONS 
       AND A TOTAL OF          7 INNER ITERATIONS.
    ------------------------------------------------

 NO OUTPUT CONTROL FOR STRESS PERIOD   43   TIME STEP    9
 
 SOLVING FOR HEAD 
                                                   Max.-Head-Change                         Max.-Flux-Residual
  Residual-Control   Outer-Iter.   Inner-Iter.     Column Row Layer    Maximum-Head-Change  Column Row Layer    Maximum-Flux-Residual          L2-NORM 
          0                 1           2             4    7     1      -0.5180530181E-01       4    7    1        -0.2715763612E+01      0.5979239227E+01
          0                 2           2             4    7     1       0.5039206927E-02       4    7    1         0.2715739325E+00      0.5979210072E+00
          0                 3           2             4    7     1      -0.3431516649E-03       4    7    1        -0.1901020645E-01      0.4185450426E-01
          0                 4           1             4    7     1       0.1365432440E-04       4    7    1         0.7775184274E-03      0.1711852089E-02

    ------------------------------------------------
       NWT REQUIRED            4 OUTER ITERATIONS 
       AND A TOTAL OF          7 INNER ITERATIONS.
    ------------------------------------------------

 NO OUTPUT CONTROL FOR STRESS PERIOD   43   TIME STEP   10
 
 SOLVING FOR HEAD 
                                                   Max.-Head-Change                         Max.-Flux-Residual
  Residual-Control   Outer-Iter.   Inner-Iter.     Column Row Layer    Maximum-Head-Change  Column Row Layer    Maximum-Flux-Residual          L2-NORM 
          0                 1           2             4    7     1      -0.5134346834E-01       4    7    1        -0.2692101883E+01      0.5897125569E+01
          0                 2           2             4    7     1       0.4994282524E-02       4    7    1         0.2692077184E+00      0.5897096575E+00
          0                 3           2             4    7     1      -0.3400924855E-03       4    7    1        -0.1884457179E-01      0.4127971090E-01
          0                 4           1             4    7     1       0.1353259642E-04       4    7    1         0.7707439506E-03      0.1688344929E-02

    ------------------------------------------------
       NWT REQUIRED            4 OUTER ITERATIONS 
       AND A TOTAL OF          7 INNER ITERATIONS.
    ------------------------------------------------

 NO OUTPUT CONTROL FOR STRESS PERIOD   43   TIME STEP   11
 
 SOLVING FOR HEAD 
                                                   Max.-Head-Change                         Max.-Flux-Residual
  Residual-Control   Outer-Iter.   Inner-Iter.     Column Row Layer    Maximum-Head-Change  Column Row Layer    Maximum-Flux-Residual          L2-NORM 
          0                 1           2             4    7     1      -0.5087576607E-01       4    7    1        -0.2668081324E+01      0.5818072293E+01
          0                 2           2             4    7     1       0.4948787373E-02       4    7    1         0.2668056298E+00      0.5818043491E+00
          0                 3           2             4    7     1      -0.3369944391E-03       4    7    1        -0.1867642583E-01      0.4072633887E-01
          0                 4           1             4    7     1       0.1340932239E-04       4    7    1         0.7638667703E-03      0.1665712775E-02

    ------------------------------------------------
       NWT REQUIRED            4 OUTER ITERATIONS 
       AND A TOTAL OF          7 INNER ITERATIONS.
    ------------------------------------------------

 NO OUTPUT CONTROL FOR STRESS PERIOD   43   TIME STEP   12
 
 SOLVING FOR HEAD 
                                                   Max.-Head-Change                         Max.-Flux-Residual
  Residual-Control   Outer-Iter.   Inner-Iter.     Column Row Layer    Maximum-Head-Change  Column Row Layer    Maximum-Flux-Residual          L2-NORM 
          0                 1           2             4    7     1      -0.5040347007E-01       4    7    1        -0.2643772295E+01      0.5741910051E+01
          0                 2           2             4    7     1       0.4902845494E-02       4    7    1         0.2643747021E+00      0.5741881482E+00
          0                 3           2             4    7     1      -0.3338659708E-03       4    7    1        -0.1850626106E-01      0.4019320633E-01
          0                 4           1             4    7     1       0.1328483768E-04       4    7    1         0.7569070144E-03      0.1643905569E-02

    ------------------------------------------------
       NWT REQUIRED            4 OUTER ITERATIONS 
       AND A TOTAL OF          7 INNER ITERATIONS.
    ------------------------------------------------

 NO OUTPUT CONTROL FOR STRESS PERIOD   43   TIME STEP   13
 
 SOLVING FOR HEAD 
                                                   Max.-Head-Change                         Max.-Flux-Residual
  Residual-Control   Outer-Iter.   Inner-Iter.     Column Row Layer    Maximum-Head-Change  Column Row Layer    Maximum-Flux-Residual          L2-NORM 
          0                 1           2             4    7     1      -0.4992736576E-01       4    7    1        -0.2619218738E+01      0.5668473892E+01
          0                 2           2             4    7     1       0.4856533274E-02       4    7    1         0.2619193286E+00      0.5668444792E+00
          0                 3           2             4    7     1      -0.3307122828E-03       4    7    1        -0.1833438500E-01      0.3967907170E-01
          0                 4           1             4    7     1       0.1315934929E-04       4    7    1         0.7498772761E-03      0.1622876554E-02

    ------------------------------------------------
       NWT REQUIRED            4 OUTER ITERATIONS 
       AND A TOTAL OF          7 INNER ITERATIONS.
    ------------------------------------------------

 NO OUTPUT CONTROL FOR STRESS PERIOD   43   TIME STEP   14
 
 SOLVING FOR HEAD 
                                                   Max.-Head-Change                         Max.-Flux-Residual
  Residual-Control   Outer-Iter.   Inner-Iter.     Column Row Layer    Maximum-Head-Change  Column Row Layer    Maximum-Flux-Residual          L2-NORM 
          0                 1           2             4    7     1      -0.4944817219E-01       4    7    1        -0.2594460902E+01      0.5597605852E+01
          0                 2           2             4    7     1       0.4809920649E-02       4    7    1         0.2594435338E+00      0.5597577890E+00
          0                 3           2             4    7     1      -0.3275381375E-03       4    7    1        -0.1816107939E-01      0.3918307963E-01
          0                 4           1             4    7     1       0.1303304740E-04       4    7    1         0.7427890714E-03      0.1602590886E-02

    ------------------------------------------------
       NWT REQUIRED            4 OUTER ITERATIONS 
       AND A TOTAL OF          7 INNER ITERATIONS.
    ------------------------------------------------

 NO OUTPUT CONTROL FOR STRESS PERIOD   43   TIME STEP   15
 
 SOLVING FOR HEAD 
                                                   Max.-Head-Change                         Max.-Flux-Residual
  Residual-Control   Outer-Iter.   Inner-Iter.     Column Row Layer    Maximum-Head-Change  Column Row Layer    Maximum-Flux-Residual          L2-NORM 
          0                 1           2             4    7     1      -0.4896695712E-01       4    7    1        -0.2569558233E+01      0.5529169530E+01
          0                 2           2             4    7     1       0.4763111474E-02       4    7    1         0.2569532615E+00      0.5529141896E+00
          0                 3           2             4    7     1      -0.3243506069E-03       4    7    1        -0.1798676032E-01      0.3870402552E-01
          0                 4           1             4    7     1       0.1290621247E-04       4    7    1         0.7356594094E-03      0.1582996488E-02

    ------------------------------------------------
       NWT REQUIRED            4 OUTER ITERATIONS 
       AND A TOTAL OF          7 INNER ITERATIONS.
    ------------------------------------------------

 NO OUTPUT CONTROL FOR STRESS PERIOD   43   TIME STEP   16
 
 SOLVING FOR HEAD 
                                                   Max.-Head-Change                         Max.-Flux-Residual
  Residual-Control   Outer-Iter.   Inner-Iter.     Column Row Layer    Maximum-Head-Change  Column Row Layer    Maximum-Flux-Residual          L2-NORM 
          0                 1           2             4    7     1      -0.4848418687E-01       4    7    1        -0.2544537101E+01      0.5463031315E+01
          0                 2           2             4    7     1       0.4716151101E-02       4    7    1         0.2544511483E+00      0.5463004061E+00
          0                 3           2             4    7     1      -0.3211527793E-03       4    7    1        -0.1781161231E-01      0.3824106330E-01
          0                 4           1             4    7     1       0.1277896769E-04       4    7    1         0.7284958431E-03      0.1564062774E-02

    ------------------------------------------------
       NWT REQUIRED            4 OUTER ITERATIONS 
       AND A TOTAL OF          7 INNER ITERATIONS.
    ------------------------------------------------

 NO OUTPUT CONTROL FOR STRESS PERIOD   43   TIME STEP   17
 
 SOLVING FOR HEAD 
                                                   Max.-Head-Change                         Max.-Flux-Residual
  Residual-Control   Outer-Iter.   Inner-Iter.     Column Row Layer    Maximum-Head-Change  Column Row Layer    Maximum-Flux-Residual          L2-NORM 
          0                 1           2             4    7     1      -0.4800067355E-01       4    7    1        -0.2519442893E+01      0.5399061858E+01
          0                 2           2             4    7     1       0.4669118517E-02       4    7    1         0.2519417321E+00      0.5399034991E+00
          0                 3           2             4    7     1      -0.3179500339E-03       4    7    1        -0.1763595305E-01      0.3779327893E-01
          0                 4           1             4    7     1       0.1265152754E-04       4    7    1         0.7213113674E-03      0.1545749629E-02

    ------------------------------------------------
       NWT REQUIRED            4 OUTER ITERATIONS 
       AND A TOTAL OF          7 INNER ITERATIONS.
    ------------------------------------------------

 NO OUTPUT CONTROL FOR STRESS PERIOD   43   TIME STEP   18
 
 SOLVING FOR HEAD 
                                                   Max.-Head-Change                         Max.-Flux-Residual
  Residual-Control   Outer-Iter.   Inner-Iter.     Column Row Layer    Maximum-Head-Change  Column Row Layer    Maximum-Flux-Residual          L2-NORM 
          0                 1           2             4    7     1      -0.4751705194E-01       4    7    1        -0.2494311122E+01      0.5337169246E+01
          0                 2           2             4    7     1       0.4622075465E-02       4    7    1         0.2494285641E+00      0.5337142772E+00
          0                 3           2             4    7     1      -0.3147465754E-03       4    7    1        -0.1746003115E-01      0.3736003355E-01
          0                 4           1             4    7     1       0.1252405918E-04       4    7    1         0.7141161548E-03      0.1528028134E-02

    ------------------------------------------------
       NWT REQUIRED            4 OUTER ITERATIONS 
       AND A TOTAL OF          7 INNER ITERATIONS.
    ------------------------------------------------

 NO OUTPUT CONTROL FOR STRESS PERIOD   43   TIME STEP   19
 
 SOLVING FOR HEAD 
                                                   Max.-Head-Change                         Max.-Flux-Residual
  Residual-Control   Outer-Iter.   Inner-Iter.     Column Row Layer    Maximum-Head-Change  Column Row Layer    Maximum-Flux-Residual          L2-NORM 
          0                 1           2             4    7     1      -0.4703389176E-01       4    7    1        -0.2469173988E+01      0.5277230774E+01
          0                 2           2             4    7     1       0.4575077352E-02       4    7    1         0.2469148636E+00      0.5277204740E+00
          0                 3           2             4    7     1      -0.3115461762E-03       4    7    1        -0.1728407192E-01      0.3694046809E-01
          0                 4           1             4    7     1       0.1239671240E-04       4    7    1         0.7069194153E-03      0.1510885379E-02

    ------------------------------------------------
       NWT REQUIRED            4 OUTER ITERATIONS 
       AND A TOTAL OF          7 INNER ITERATIONS.
    ------------------------------------------------

 NO OUTPUT CONTROL FOR STRESS PERIOD   43   TIME STEP   20
 
 SOLVING FOR HEAD 
                                                   Max.-Head-Change                         Max.-Flux-Residual
  Residual-Control   Outer-Iter.   Inner-Iter.     Column Row Layer    Maximum-Head-Change  Column Row Layer    Maximum-Flux-Residual          L2-NORM 
          0                 1           2             4    7     1      -0.4655172970E-01       4    7    1        -0.2444061507E+01      0.5219161686E+01
          0                 2           2             4    7     1       0.4528176381E-02       4    7    1         0.2444036318E+00      0.5219136066E+00
          0                 3           2             4    7     1      -0.3083523913E-03       4    7    1        -0.1710828544E-01      0.3653398531E-01
          0                 4           1             4    7     1       0.1226962845E-04       4    7    1         0.6997297432E-03      0.1494242062E-02

    ------------------------------------------------
       NWT REQUIRED            4 OUTER ITERATIONS 
       AND A TOTAL OF          7 INNER ITERATIONS.
    ------------------------------------------------

 NO OUTPUT CONTROL FOR STRESS PERIOD   43   TIME STEP   21
 
 SOLVING FOR HEAD 
                                                   Max.-Head-Change                         Max.-Flux-Residual
  Residual-Control   Outer-Iter.   Inner-Iter.     Column Row Layer    Maximum-Head-Change  Column Row Layer    Maximum-Flux-Residual          L2-NORM 
          0                 1           2             4    7     1      -0.4607091224E-01       4    7    1        -0.2418993725E+01      0.5162861460E+01
          0                 2           2             4    7     1       0.4481406248E-02       4    7    1         0.2418968732E+00      0.5162836285E+00
          0                 3           2             4    7     1      -0.3051675156E-03       4    7    1        -0.1693281207E-01      0.3613988650E-01
          0                 4           1             4    7     1       0.1214289921E-04       4    7    1         0.6925528651E-03      0.1478125831E-02

    ------------------------------------------------
       NWT REQUIRED            4 OUTER ITERATIONS 
       AND A TOTAL OF          7 INNER ITERATIONS.
    ------------------------------------------------

 NO OUTPUT CONTROL FOR STRESS PERIOD   43   TIME STEP   22
 
 SOLVING FOR HEAD 
                                                   Max.-Head-Change                         Max.-Flux-Residual
  Residual-Control   Outer-Iter.   Inner-Iter.     Column Row Layer    Maximum-Head-Change  Column Row Layer    Maximum-Flux-Residual          L2-NORM 
          0                 1           2             4    7     1      -0.4559202248E-01       4    7    1        -0.2394003454E+01      0.5108246156E+01
          0                 2           2             4    7     1       0.4434823669E-02       4    7    1         0.2393978683E+00      0.5108221410E+00
          0                 3           2             4    7     1      -0.3019954116E-03       4    7    1        -0.1675788145E-01      0.3575758142E-01
          0                 4           1             4    7     1       0.1201667861E-04       4    7    1         0.6853982040E-03      0.1462487217E-02

    ------------------------------------------------
       NWT REQUIRED            4 OUTER ITERATIONS 
       AND A TOTAL OF          7 INNER ITERATIONS.
    ------------------------------------------------

 NO OUTPUT CONTROL FOR STRESS PERIOD   43   TIME STEP   23
 
 SOLVING FOR HEAD 
                                                   Max.-Head-Change                         Max.-Flux-Residual
  Residual-Control   Outer-Iter.   Inner-Iter.     Column Row Layer    Maximum-Head-Change  Column Row Layer    Maximum-Flux-Residual          L2-NORM 
          0                 1           2             4    7     1      -0.4511547878E-01       4    7    1        -0.2369113861E+01      0.5055254104E+01
          0                 2           2             4    7     1       0.4388469332E-02       4    7    1         0.2369089337E+00      0.5055229801E+00
          0                 3           2             4    7     1      -0.2988388493E-03       4    7    1        -0.1658365572E-01      0.3538664120E-01
          0                 4           1             4    7     1       0.1189107589E-04       4    7    1         0.6782723481E-03      0.1447316166E-02

    ------------------------------------------------
       NWT REQUIRED            4 OUTER ITERATIONS 
       AND A TOTAL OF          7 INNER ITERATIONS.
    ------------------------------------------------

 NO OUTPUT CONTROL FOR STRESS PERIOD   43   TIME STEP   24
 
 SOLVING FOR HEAD 
                                                   Max.-Head-Change                         Max.-Flux-Residual
  Residual-Control   Outer-Iter.   Inner-Iter.     Column Row Layer    Maximum-Head-Change  Column Row Layer    Maximum-Flux-Residual          L2-NORM 
          0                 1           2             4    7     1      -0.4464163110E-01       4    7    1        -0.2344345684E+01      0.5003787528E+01
          0                 2           2             4    7     1       0.4342377276E-02       4    7    1         0.2344321428E+00      0.5003763675E+00
          0                 3           2             4    7     1      -0.2957001474E-03       4    7    1        -0.1641028003E-01      0.3502639500E-01
          0                 4           1             4    7     1       0.1176618421E-04       4    7    1         0.6711812944E-03      0.1433152241E-02

    ------------------------------------------------
       NWT REQUIRED            4 OUTER ITERATIONS 
       AND A TOTAL OF          7 INNER ITERATIONS.
    ------------------------------------------------

 NO OUTPUT CONTROL FOR STRESS PERIOD   43   TIME STEP   25
 
 SOLVING FOR HEAD 
                                                   Max.-Head-Change                         Max.-Flux-Residual
  Residual-Control   Outer-Iter.   Inner-Iter.     Column Row Layer    Maximum-Head-Change  Column Row Layer    Maximum-Flux-Residual          L2-NORM 
          0                 1           2             4    7     1      -0.4417083239E-01       4    7    1        -0.2319718261E+01      0.4953800195E+01
          0                 2           2             4    7     1       0.4296581828E-02       4    7    1         0.2319694291E+00      0.4953776771E+00
          0                 3           2             4    7     1      -0.2925816428E-03       4    7    1        -0.1623788973E-01      0.3467646741E-01
          0                 4           1             4    7     1       0.1164209576E-04       4    7    1         0.6641305029E-03      0.1418272461E-02

    ------------------------------------------------
       NWT REQUIRED            4 OUTER ITERATIONS 
       AND A TOTAL OF          7 INNER ITERATIONS.
    ------------------------------------------------

 NO OUTPUT CONTROL FOR STRESS PERIOD   43   TIME STEP   26
 
 SOLVING FOR HEAD 
                                                   Max.-Head-Change                         Max.-Flux-Residual
  Residual-Control   Outer-Iter.   Inner-Iter.     Column Row Layer    Maximum-Head-Change  Column Row Layer    Maximum-Flux-Residual          L2-NORM 
          0                 1           2             4    7     1      -0.4370337678E-01       4    7    1        -0.2295248938E+01      0.4905213551E+01
          0                 2           2             4    7     1       0.4251111598E-02       4    7    1         0.2295225271E+00      0.4905190578E+00
          0                 3           2             4    7     1      -0.2894852844E-03       4    7    1        -0.1606660623E-01      0.3433636376E-01
          0                 4           1             4    7     1       0.1151888874E-04       4    7    1         0.6571249996E-03      0.1404360542E-02

    ------------------------------------------------
       NWT REQUIRED            4 OUTER ITERATIONS 
       AND A TOTAL OF          7 INNER ITERATIONS.
    ------------------------------------------------

 NO OUTPUT CONTROL FOR STRESS PERIOD   43   TIME STEP   27
 
 SOLVING FOR HEAD 
                                                   Max.-Head-Change                         Max.-Flux-Residual
  Residual-Control   Outer-Iter.   Inner-Iter.     Column Row Layer    Maximum-Head-Change  Column Row Layer    Maximum-Flux-Residual          L2-NORM 
          0                 1           2             4    7     1      -0.4323954204E-01       4    7    1        -0.2270953443E+01      0.4857973421E+01
          0                 2           2             4    7     1       0.4205993599E-02       4    7    1         0.2270930093E+00      0.4857950916E+00
          0                 3           2             4    7     1      -0.2864129113E-03       4    7    1        -0.1589653961E-01      0.3400568620E-01
          0                 4           1             4    7     1       0.1139663635E-04       4    7    1         0.6501692737E-03      0.1390836266E-02

    ------------------------------------------------
       NWT REQUIRED            4 OUTER ITERATIONS 
       AND A TOTAL OF          7 INNER ITERATIONS.
    ------------------------------------------------

 NO OUTPUT CONTROL FOR STRESS PERIOD   43   TIME STEP   28
 
 SOLVING FOR HEAD 
                                                   Max.-Head-Change                         Max.-Flux-Residual
  Residual-Control   Outer-Iter.   Inner-Iter.     Column Row Layer    Maximum-Head-Change  Column Row Layer    Maximum-Flux-Residual          L2-NORM 
          0                 1           2             4    7     1      -0.4277957638E-01       4    7    1        -0.2246845939E+01      0.4812026685E+01
          0                 2           2             4    7     1       0.4161251973E-02       4    7    1         0.2246822917E+00      0.4812004610E+00
          0                 3           2             4    7     1      -0.2833661679E-03       4    7    1        -0.1572778900E-01      0.3368406090E-01
          0                 4           1             4    7     1       0.1127540377E-04       4    7    1         0.6432673745E-03      0.1377681046E-02

    ------------------------------------------------
       NWT REQUIRED            4 OUTER ITERATIONS 
       AND A TOTAL OF          7 INNER ITERATIONS.
    ------------------------------------------------

 NO OUTPUT CONTROL FOR STRESS PERIOD   43   TIME STEP   29
 
 SOLVING FOR HEAD 
                                                   Max.-Head-Change                         Max.-Flux-Residual
  Residual-Control   Outer-Iter.   Inner-Iter.     Column Row Layer    Maximum-Head-Change  Column Row Layer    Maximum-Flux-Residual          L2-NORM 
          0                 1           2             4    7     1      -0.4232369550E-01       4    7    1        -0.2222939296E+01      0.4767307164E+01
          0                 2           2             4    7     1       0.4116907698E-02       4    7    1         0.2222916612E+00      0.4767285510E+00
          0                 3           2             4    7     1      -0.2803464820E-03       4    7    1        -0.1556044447E-01      0.3337102715E-01
          0                 4           1             4    7     1       0.1115524774E-04       4    7    1         0.6364229673E-03      0.1364878374E-02

    ------------------------------------------------
       NWT REQUIRED            4 OUTER ITERATIONS 
       AND A TOTAL OF          7 INNER ITERATIONS.
    ------------------------------------------------

 NO OUTPUT CONTROL FOR STRESS PERIOD   43   TIME STEP   30



 STREAM LISTING     PERIOD     43   STEP       30

 LAYER ROW COL. STREAM  RCH.  FLOW INTO     FLOW TO   FLOW OUT OF   OVRLND.     DIRECT     STREAM       STREAM     STREAM     STREAM   STREAMBED  STREAMBED
                SEG.NO.  NO.  STRM. RCH.    AQUIFER    STRM. RCH.    RUNOFF     PRECIP       ET          HEAD       DEPTH      WIDTH   CONDCTNC.   GRADIENT

   1    1    1     1     1    1.9000E+01  2.1427E-01   1.8786E+01  0.000E+00  0.000E+00  0.000E+00  1.09413E+03  1.082E+00  1.166E+01  5.249E-02  1.361E+00
   1    2    2     1     2    1.8786E+01  3.3054E-01   1.8455E+01  0.000E+00  0.000E+00  0.000E+00  1.08914E+03  1.077E+00  1.158E+01  8.107E-02  1.359E+00
   1    3    3     1     3    1.8455E+01  2.8064E-01   1.8175E+01  0.000E+00  0.000E+00  0.000E+00  1.08349E+03  1.072E+00  1.149E+01  6.892E-02  1.357E+00
   1    3    4     1     4    1.8175E+01  2.5740E-01   1.7917E+01  0.000E+00  0.000E+00  0.000E+00  1.07848E+03  1.068E+00  1.140E+01  6.328E-02  1.356E+00
   1    4    5     2     1    1.5917E+01  3.0542E-01   1.5612E+01  0.000E+00  0.000E+00  0.000E+00  1.07285E+03  9.157E-01  1.200E+01  7.800E-02  1.305E+00
   1    5    6     2     2    1.5612E+01  2.3438E-01   1.5377E+01  0.000E+00  0.000E+00  0.000E+00  1.06742E+03  9.063E-01  1.200E+01  6.000E-02  1.302E+00
   1    6    6     2     3    1.5377E+01  2.3388E-01   1.5143E+01  0.000E+00  0.000E+00  0.000E+00  1.06269E+03  8.980E-01  1.200E+01  6.000E-02  1.299E+00
   1    7    6     2     4    1.5143E+01  2.3338E-01   1.4910E+01  0.000E+00  0.000E+00  0.000E+00  1.05797E+03  8.897E-01  1.200E+01  6.000E-02  1.297E+00
   1    8    6     2     5    1.4910E+01  2.3289E-01   1.4677E+01  0.000E+00  0.000E+00  0.000E+00  1.05324E+03  8.814E-01  1.200E+01  6.000E-02  1.294E+00
   1    3    5     3     1    2.0000E+00  2.8252E-01   1.7175E+00  0.000E+00  0.000E+00  0.000E+00  1.07555E+03  1.909E+00  9.636E+00  7.227E-02  1.955E+00
   1    3    6     3     2    1.7175E+00  2.4905E-01   1.4684E+00  0.000E+00  0.000E+00  0.000E+00  1.07264E+03  1.727E+00  8.909E+00  6.682E-02  1.864E+00
   1    3    7     3     3    1.4684E+00  1.9718E-01   1.2712E+00  0.000E+00  0.000E+00  0.000E+00  1.06987E+03  1.555E+00  8.218E+00  5.547E-02  1.777E+00
   1    4    8     3     4    1.2712E+00  2.2567E-01   1.0456E+00  0.000E+00  0.000E+00  0.000E+00  1.06682E+03  1.364E+00  7.455E+00  6.709E-02  1.682E+00
   1    5    8     3     5    1.0456E+00  1.5790E-01   8.8768E-01  0.000E+00  0.000E+00  0.000E+00  1.06362E+03  1.164E+00  6.655E+00  4.991E-02  1.582E+00
   1    6    8     3     6    8.8768E-01  5.5980E-02   8.3170E-01  0.000E+00  0.000E+00  0.000E+00  1.06158E+03  1.036E+00  6.145E+00  1.844E-02  1.518E+00
   1    5   10     4     1    1.0000E+01  9.0919E-02   9.9091E+00  0.000E+00  0.000E+00  0.000E+00  1.07836E+03  6.368E-01  1.000E+01  2.500E-02  1.212E+00
   1    5    9     4     2    9.9091E+00  1.8158E-01   9.7275E+00  0.000E+00  0.000E+00  0.000E+00  1.07154E+03  6.315E-01  1.000E+01  5.000E-02  1.211E+00
   1    6    8     4     3    9.7275E+00  1.2689E-01   9.6006E+00  0.000E+00  0.000E+00  0.000E+00  1.06381E+03  6.256E-01  1.000E+01  3.500E-02  1.209E+00
   1    6    8     5     1    1.0432E+01  2.2686E-01   1.0205E+01  0.000E+00  0.000E+00  0.000E+00  1.05868E+03  6.790E-01  1.542E+01  6.166E-02  1.226E+00
   1    7    7     5     2    1.0205E+01  2.7894E-01   9.9265E+00  0.000E+00  0.000E+00  0.000E+00  1.05417E+03  6.732E-01  1.519E+01  7.594E-02  1.224E+00
   1    8    7     5     3    9.9265E+00  1.9221E-01   9.7343E+00  0.000E+00  0.000E+00  0.000E+00  1.04992E+03  6.676E-01  1.497E+01  5.241E-02  1.223E+00
   1    8    6     5     4    9.7343E+00  1.3577E-01   9.5985E+00  0.000E+00  0.000E+00  0.000E+00  1.04691E+03  6.637E-01  1.482E+01  3.706E-02  1.221E+00
   1    9    6     6     1    2.4276E+01  2.5176E-01   2.4024E+01  0.000E+00  0.000E+00  0.000E+00  1.04392E+03  1.196E+00  1.200E+01  6.000E-02  1.399E+00
   1   10    7     6     2    2.4024E+01  2.5131E-01   2.3773E+01  0.000E+00  0.000E+00  0.000E+00  1.03937E+03  1.188E+00  1.200E+01  6.000E-02  1.396E+00
   1   11    7     6     3    2.3773E+01  2.5086E-01   2.3522E+01  0.000E+00  0.000E+00  0.000E+00  1.03482E+03  1.181E+00  1.200E+01  6.000E-02  1.394E+00
   1   12    7     6     4    2.3522E+01  2.5041E-01   2.3271E+01  0.000E+00  0.000E+00  0.000E+00  1.03026E+03  1.173E+00  1.200E+01  6.000E-02  1.391E+00
   1   13    7     6     5    2.3271E+01  1.1031E-02   2.3260E+01  0.000E+00  0.000E+00  0.000E+00  1.02708E+03  1.170E+00  1.200E+01  2.400E-02  1.532E-01
   1   14    9     7     1    1.5000E+02  1.3710E+00   1.4863E+02  0.000E+00  0.000E+00  0.000E+00  1.03987E+03  2.288E+00  5.529E+01  5.593E-01  8.171E-01
   1   13    8     7     2    1.4863E+02  1.9714E+00   1.4666E+02  0.000E+00  0.000E+00  0.000E+00  1.03478E+03  2.279E+00  5.525E+01  6.147E-01  1.069E+00
   1   13    7     7     3    1.4666E+02  1.7138E+00   1.4494E+02  0.000E+00  0.000E+00  0.000E+00  1.02969E+03  2.269E+00  5.521E+01  5.584E-01  1.023E+00
   1   13    6     8     1    1.6820E+02  1.1468E+00   1.6706E+02  0.000E+00  0.000E+00  0.000E+00  1.02481E+03  2.937E+00  4.258E+01  4.339E-01  8.809E-01
   1   13    5     8     2    1.6706E+02  3.8158E-01   1.6668E+02  0.000E+00  0.000E+00  0.000E+00  1.01856E+03  2.932E+00  4.251E+01  4.332E-01  2.936E-01
   1   13    4     8     3    1.6668E+02 -1.7547E+00   1.6843E+02  0.000E+00  0.000E+00  0.000E+00  1.01231E+03  2.936E+00  4.257E+01  4.339E+00 -1.348E-01
   1   13    3     8     4    1.6843E+02 -3.3116E+00   1.7174E+02  0.000E+00  0.000E+00  0.000E+00  1.00608E+03  2.953E+00  4.282E+01  4.363E+00 -2.530E-01
   1   13    2     8     5    1.7174E+02 -2.4922E+00   1.7423E+02  0.000E+00  0.000E+00  0.000E+00  9.99847E+02  2.972E+00  4.309E+01  4.391E+00 -1.892E-01
   1   13    1     8     6    1.7423E+02 -1.9602E+00   1.7619E+02  0.000E+00  0.000E+00  0.000E+00  9.94861E+02  2.986E+00  4.329E+01  2.647E+00 -2.468E-01





UNSATURATED ZONE PACKAGE VOLUMETRIC BUDGET FOR  TIME STEP    30 STRESS PERIOD   43
  ------------------------------------------------------------------------------



     CUMULATIVE VOLUMES      L**3       RATES FOR THIS TIME STEP      L**3/T
     ------------------                 ------------------------

           IN:                                      IN:
           ---                                      ---
        INFILTRATION =  1766959435.7732          INFILTRATION =          26.5556

          OUT:                                     OUT:
          ----                                     ----
              UZF ET =  1639354124.3107                UZF ET =          26.6075
        UZF RECHARGE =     1353775.7903          UZF RECHARGE =           0.0060

            IN - OUT =   126251535.6722              IN - OUT =      -5.7896E-02

          STORAGE:                                 STORAGE:
          --------                                 --------
      STORAGE CHANGE =   126253167.1190        STORAGE CHANGE =      -5.7897E-02

 PERCENT DISCREPANCY IS DIFFERENCE BETWEEN IN-OUT MINUS CHANGE IN STORAGE
 DIVIDED BY THE AVERAGE OF IN AND OUT TIMES 100

 PERCENT DISCREPANCY =          -0.00     PERCENT DISCREPANCY =           0.00






1
  VOLUMETRIC BUDGET FOR ENTIRE MODEL AT END OF TIME STEP   30, STRESS PERIOD  43
  ------------------------------------------------------------------------------

     CUMULATIVE VOLUMES      L**3       RATES FOR THIS TIME STEP      L**3/T
     ------------------                 ------------------------

           IN:                                      IN:
           ---                                      ---
               AG WELLS  =  1280034304.0000                 AG WELLS  =          22.1481
      DIVERSION SEGMENTS =           0.0000        DIVERSION SEGMENTS =           0.0000
           GW IRRIGATION =           0.0000             GW IRRIGATION =           0.0000
           SW IRRIGATION =           0.0000             SW IRRIGATION =           0.0000
        SYSTEM LOSSES GW =           0.0000          SYSTEM LOSSES GW =           0.0000
        SYSTEM LOSSES SW =           0.0000          SYSTEM LOSSES SW =           0.0000

                TOTAL IN =  1280034304.0000                  TOTAL IN =          22.1481

          OUT:                                     OUT:
          ----                                     ----
               AG WELLS  =           0.0000                 AG WELLS  =           0.0000
      DIVERSION SEGMENTS =           0.0000        DIVERSION SEGMENTS =           0.0000
           GW IRRIGATION =  1280034304.0000             GW IRRIGATION =          22.1481
           SW IRRIGATION =           0.0000             SW IRRIGATION =           0.0000
        SYSTEM LOSSES GW =           0.0000          SYSTEM LOSSES GW =           0.0000
        SYSTEM LOSSES SW =           0.0000          SYSTEM LOSSES SW =           0.0000

               TOTAL OUT =  1280034304.0000                 TOTAL OUT =          22.1481

                IN - OUT =           0.0000                  IN - OUT =           0.0000

     PERCENT DISCREPANCY =           0.00         PERCENT DISCREPANCY =           0.00



1
  VOLUMETRIC BUDGET FOR ENTIRE MODEL AT END OF TIME STEP   30, STRESS PERIOD  43
  ------------------------------------------------------------------------------

     CUMULATIVE VOLUMES      L**3       RATES FOR THIS TIME STEP      L**3/T
     ------------------                 ------------------------

           IN:                                      IN:
           ---                                      ---
             STORAGE     =  1760441344.0000               STORAGE     =          19.3717
       CONSTANT HEAD     =           0.0000         CONSTANT HEAD     =           0.0000
     HEAD DEP BOUNDS     =    31628146.0000       HEAD DEP BOUNDS     =           0.2882
      STREAM LEAKAGE     =  1353333376.0000        STREAM LEAKAGE     =          12.3242
        UZF RECHARGE     =     1353775.2500          UZF RECHARGE     =       5.9587E-03
               GW ET     =           0.0000                 GW ET     =           0.0000
     SURFACE LEAKAGE     =           0.0000       SURFACE LEAKAGE     =           0.0000
           AG WELLS      =           0.0000             AG WELLS      =           0.0000

                TOTAL IN =  3146756608.0000                  TOTAL IN =          31.9900

          OUT:                                     OUT:
          ----                                     ----
             STORAGE     =   692271104.0000               STORAGE     =       3.4476E-02
       CONSTANT HEAD     =           0.0000         CONSTANT HEAD     =           0.0000
     HEAD DEP BOUNDS     =    32273004.0000       HEAD DEP BOUNDS     =           0.2889
      STREAM LEAKAGE     =  1124861056.0000        STREAM LEAKAGE     =           9.5187
        UZF RECHARGE     =           0.0000          UZF RECHARGE     =           0.0000
               GW ET     =    17319432.0000                 GW ET     =           0.0000
     SURFACE LEAKAGE     =           0.0000       SURFACE LEAKAGE     =           0.0000
           AG WELLS      =  1280034304.0000             AG WELLS      =          22.1481

               TOTAL OUT =  3146758912.0000                 TOTAL OUT =          31.9901

                IN - OUT =       -2304.0000                  IN - OUT =      -6.6757E-05

     PERCENT DISCREPANCY =          -0.00         PERCENT DISCREPANCY =          -0.00






         TIME SUMMARY AT END OF TIME STEP   30 IN STRESS PERIOD   43
                    SECONDS     MINUTES      HOURS       DAYS        YEARS
                    -----------------------------------------------------------
   TIME STEP LENGTH  87667.      1461.1      24.352      1.0147     2.77799E-03
 STRESS PERIOD TIME 2.63000E+06  43833.      730.56      30.440     8.33397E-02
         TOTAL TIME 1.10545E+08 1.84242E+06  30707.      1279.5      3.5030    
1
1
                            STRESS PERIOD NO.   44, LENGTH =   2630000.    
                            -----------------------------------------------

                              NUMBER OF TIME STEPS =    30

                               MULTIPLIER FOR DELT =     1.000

                            INITIAL TIME STEP SIZE =   87666.66    

 REUSING NON-PARAMETER GHB CELLS FROM LAST STRESS PERIOD

      2 GHB CELLS

 REUSING STREAM SEGMENT DATA FROM LAST STRESS PERIOD



            AREAL INFILTRATION RATE
 READING ON UNIT   19 WITH FORMAT: (10F4.0)            

            1           2           3           4           5           6           7           8           9          10
 ........................................................................................................................
   1   1.2000E-09   0.000       0.000       0.000       0.000       0.000       0.000       0.000       0.000       0.000    
   2   2.1000E-09  2.0000E-09  8.0000E-10  8.5000E-09   0.000       0.000       0.000       0.000       0.000       0.000    
   3   5.0000E-10  1.1000E-09  8.8000E-09  5.5000E-09   0.000       0.000       0.000       0.000       0.000       0.000    
   4   8.5000E-09  1.1000E-09  1.1000E-09  1.1000E-09  2.0000E-09   0.000       0.000       0.000       0.000       0.000    
   5   8.5000E-09  1.1000E-09  1.1000E-09  1.1000E-09  1.1000E-09   0.000       0.000       0.000       0.000       0.000    
   6   8.5000E-09  5.2000E-09  2.1000E-09  1.1000E-09  1.5000E-09   0.000       0.000       0.000       0.000       0.000    
   7   8.5000E-09  5.2000E-09  2.1000E-09  1.2000E-09  2.0000E-09   0.000       0.000       0.000       0.000       0.000    
   8   5.0000E-10  5.2000E-09  2.1000E-09  1.2000E-09  5.0000E-09   0.000       0.000       0.000       0.000       0.000    
   9   5.0000E-10  5.2000E-09  2.1000E-09  1.2000E-09  5.0000E-09   0.000       0.000       0.000       0.000       0.000    
  10   5.0000E-10  5.2000E-09  2.1000E-09  1.2000E-09  5.8000E-09   0.000       0.000       0.000       0.000       0.000    
  11   1.0000E-10  1.1000E-09  1.1000E-09  1.2000E-09  5.0000E-09   0.000       0.000       0.000       0.000       0.000    
  12   1.1000E-09  1.1000E-09  1.1000E-09  1.1000E-09  2.0000E-09   0.000       0.000       0.000       0.000       0.000    
  13   1.1000E-09  2.2000E-09  2.2000E-09  2.1000E-09  1.0000E-09   0.000       0.000       0.000       0.000       0.000    
  14   2.0000E-10  5.5000E-09  5.5000E-09  5.2000E-09  1.0000E-09   0.000       0.000       0.000       0.000       0.000    
  15    0.000      8.8000E-09  8.8000E-09   0.000       0.000       0.000       0.000       0.000       0.000       0.000    

                  ET RATE =  4.000000E-07

 USING ET EXTINCTION DEPTH FROM PREVIOUS STRESS PERIOD. CURRENT PERIOD IS:      44

 USING EXTINCTION WATER CONTENT FROM PREVIOUS STRESS PERIOD. CURRENT PERIOD IS:      44

 USING AIR ENTRY PRESSURE FROM PREVIOUS STRESS PERIOD. CURRENT PERIOD IS:      44

 USING ROOT PRESSURE HEAD FROM PREVIOUS STRESS PERIOD. CURRENT PERIOD IS:      44

 USING ROOT ACTIVITY FROM PREVIOUS STRESS PERIOD. CURRENT PERIOD IS:      44

 PROCESSING AG STRESS PERIOD DATA

 READING AG STRESS PERIOD DATA

 READING IRRIGATION WELL

 END PROCESSING AG STRESS PERIOD DATA OPTIONS
 
 SOLVING FOR HEAD 
                                                   Max.-Head-Change                         Max.-Flux-Residual
  Residual-Control   Outer-Iter.   Inner-Iter.     Column Row Layer    Maximum-Head-Change  Column Row Layer    Maximum-Flux-Residual          L2-NORM 
          0                 1           2             4    7     1      -0.1615893067E+00       4    7    1        -0.8449252232E+01      0.1978852465E+02
          0                 2           2             4    7     1       0.1571798896E-01       4    7    1         0.8449089931E+00      0.1978826035E+01
          0                 3           2             4    7     1      -0.1070339166E-02       4    7    1        -0.5914380863E-01      0.1385181308E+00
          0                 4           1             4    7     1       0.4258978571E-04       4    7    1         0.2418984426E-02      0.5665398850E-02

    ------------------------------------------------
       NWT REQUIRED            4 OUTER ITERATIONS 
       AND A TOTAL OF          7 INNER ITERATIONS.
    ------------------------------------------------

 NO OUTPUT CONTROL FOR STRESS PERIOD   44   TIME STEP    1
 
 SOLVING FOR HEAD 
                                                   Max.-Head-Change                         Max.-Flux-Residual
  Residual-Control   Outer-Iter.   Inner-Iter.     Column Row Layer    Maximum-Head-Change  Column Row Layer    Maximum-Flux-Residual          L2-NORM 
          0                 1           2             4    7     1      -0.1604572347E+00       4    7    1        -0.8393133510E+01      0.1944573514E+02
          0                 2           2             4    7     1       0.1560785219E-01       4    7    1         0.8392959680E+00      0.1944546777E+01
          0                 3           2             4    7     1      -0.1062839427E-02       4    7    1        -0.5875090761E-01      0.1361185843E+00
          0                 4           1             4    7     1       0.4229136335E-04       4    7    1         0.2402914710E-02      0.5567256782E-02

    ------------------------------------------------
       NWT REQUIRED            4 OUTER ITERATIONS 
       AND A TOTAL OF          7 INNER ITERATIONS.
    ------------------------------------------------

 NO OUTPUT CONTROL FOR STRESS PERIOD   44   TIME STEP    2
 
 SOLVING FOR HEAD 
                                                   Max.-Head-Change                         Max.-Flux-Residual
  Residual-Control   Outer-Iter.   Inner-Iter.     Column Row Layer    Maximum-Head-Change  Column Row Layer    Maximum-Flux-Residual          L2-NORM 
          0                 1           2             4    7     1      -0.1593371290E+00       4    7    1        -0.8337157422E+01      0.1915039750E+02
          0                 2           2             4    7     1       0.1549888246E-01       4    7    1         0.8336974097E+00      0.1915012767E+01
          0                 3           2             4    7     1      -0.1055419129E-02       4    7    1        -0.5835901735E-01      0.1340512052E+00
          0                 4           1             4    7     1       0.4199610215E-04       4    7    1         0.2386886342E-02      0.5482700828E-02

    ------------------------------------------------
       NWT REQUIRED            4 OUTER ITERATIONS 
       AND A TOTAL OF          7 INNER ITERATIONS.
    ------------------------------------------------

 NO OUTPUT CONTROL FOR STRESS PERIOD   44   TIME STEP    3
 
 SOLVING FOR HEAD 
                                                   Max.-Head-Change                         Max.-Flux-Residual
  Residual-Control   Outer-Iter.   Inner-Iter.     Column Row Layer    Maximum-Head-Change  Column Row Layer    Maximum-Flux-Residual          L2-NORM 
          0                 1           2             4    7     1      -0.1581785822E+00       4    7    1        -0.8278955965E+01      0.1886836109E+02
          0                 2           2             4    7     1       0.1538617525E-01       4    7    1         0.8278764339E+00      0.1886808990E+01
          0                 3           2             4    7     1      -0.1047744305E-02       4    7    1        -0.5795155671E-01      0.1320769415E+00
          0                 4           1             4    7     1       0.4169071307E-04       4    7    1         0.2370221129E-02      0.5401953415E-02

    ------------------------------------------------
       NWT REQUIRED            4 OUTER ITERATIONS 
       AND A TOTAL OF          7 INNER ITERATIONS.
    ------------------------------------------------

 NO OUTPUT CONTROL FOR STRESS PERIOD   44   TIME STEP    4
 
 SOLVING FOR HEAD 
                                                   Max.-Head-Change                         Max.-Flux-Residual
  Residual-Control   Outer-Iter.   Inner-Iter.     Column Row Layer    Maximum-Head-Change  Column Row Layer    Maximum-Flux-Residual          L2-NORM 
          0                 1           2             4    7     1      -0.1569855580E+00       4    7    1        -0.8218747780E+01      0.1859867845E+02
          0                 2           2             4    7     1       0.1527011597E-01       4    7    1         0.8218548957E+00      0.1859840684E+01
          0                 3           2             4    7     1      -0.1039841202E-02       4    7    1        -0.5753005566E-01      0.1301891597E+00
          0                 4           1             4    7     1       0.4137624088E-04       4    7    1         0.2352981679E-02      0.5324742823E-02

    ------------------------------------------------
       NWT REQUIRED            4 OUTER ITERATIONS 
       AND A TOTAL OF          7 INNER ITERATIONS.
    ------------------------------------------------

 NO OUTPUT CONTROL FOR STRESS PERIOD   44   TIME STEP    5
 
 SOLVING FOR HEAD 
                                                   Max.-Head-Change                         Max.-Flux-Residual
  Residual-Control   Outer-Iter.   Inner-Iter.     Column Row Layer    Maximum-Head-Change  Column Row Layer    Maximum-Flux-Residual          L2-NORM 
          0                 1           2             4    7     1      -0.1557620432E+00       4    7    1        -0.8156752958E+01      0.1834048303E+02
          0                 2           2             4    7     1       0.1515109230E-01       4    7    1         0.8156547958E+00      0.1834021179E+01
          0                 3           2             4    7     1      -0.1031736219E-02       4    7    1        -0.5709605433E-01      0.1283817931E+00
          0                 4           1             4    7     1       0.4105373554E-04       4    7    1         0.2335230975E-02      0.5250821610E-02

    ------------------------------------------------
       NWT REQUIRED            4 OUTER ITERATIONS 
       AND A TOTAL OF          7 INNER ITERATIONS.
    ------------------------------------------------

 NO OUTPUT CONTROL FOR STRESS PERIOD   44   TIME STEP    6
 
 SOLVING FOR HEAD 
                                                   Max.-Head-Change                         Max.-Flux-Residual
  Residual-Control   Outer-Iter.   Inner-Iter.     Column Row Layer    Maximum-Head-Change  Column Row Layer    Maximum-Flux-Residual          L2-NORM 
          0                 1           2             4    7     1      -0.1545117230E+00       4    7    1        -0.8093175365E+01      0.1809299642E+02
          0                 2           2             4    7     1       0.1502946259E-01       4    7    1         0.8092965128E+00      0.1809272624E+01
          0                 3           2             4    7     1      -0.1023453762E-02       4    7    1        -0.5665097929E-01      0.1266493923E+00
          0                 4           1             4    7     1       0.4072416862E-04       4    7    1         0.2317027357E-02      0.5179966057E-02

    ------------------------------------------------
       NWT REQUIRED            4 OUTER ITERATIONS 
       AND A TOTAL OF          7 INNER ITERATIONS.
    ------------------------------------------------

 NO OUTPUT CONTROL FOR STRESS PERIOD   44   TIME STEP    7
 
 SOLVING FOR HEAD 
                                                   Max.-Head-Change                         Max.-Flux-Residual
  Residual-Control   Outer-Iter.   Inner-Iter.     Column Row Layer    Maximum-Head-Change  Column Row Layer    Maximum-Flux-Residual          L2-NORM 
          0                 1           2             4    7     1      -0.1532379886E+00       4    7    1        -0.8028202617E+01      0.1785550509E+02
          0                 2           2             4    7     1       0.1490555661E-01       4    7    1         0.8027988008E+00      0.1785523656E+01
          0                 3           2             4    7     1      -0.1015016287E-02       4    7    1        -0.5619614338E-01      0.1249869627E+00
          0                 4           1             4    7     1       0.4038843340E-04       4    7    1         0.2298424521E-02      0.5111973052E-02

    ------------------------------------------------
       NWT REQUIRED            4 OUTER ITERATIONS 
       AND A TOTAL OF          7 INNER ITERATIONS.
    ------------------------------------------------

 NO OUTPUT CONTROL FOR STRESS PERIOD   44   TIME STEP    8
 
 SOLVING FOR HEAD 
                                                   Max.-Head-Change                         Max.-Flux-Residual
  Residual-Control   Outer-Iter.   Inner-Iter.     Column Row Layer    Maximum-Head-Change  Column Row Layer    Maximum-Flux-Residual          L2-NORM 
          0                 1           2             4    7     1      -0.1519442413E+00       4    7    1        -0.7962023211E+01      0.1762736304E+02
          0                 2           2             4    7     1       0.1477970509E-01       4    7    1         0.7961805023E+00      0.1762709666E+01
          0                 3           2             4    7     1      -0.1006446315E-02       4    7    1        -0.5573286567E-01      0.1233899804E+00
          0                 4           1             4    7     1       0.4004742602E-04       4    7    1         0.2279476430E-02      0.5046656314E-02

    ------------------------------------------------
       NWT REQUIRED            4 OUTER ITERATIONS 
       AND A TOTAL OF          7 INNER ITERATIONS.
    ------------------------------------------------

 NO OUTPUT CONTROL FOR STRESS PERIOD   44   TIME STEP    9
 
 SOLVING FOR HEAD 
                                                   Max.-Head-Change                         Max.-Flux-Residual
  Residual-Control   Outer-Iter.   Inner-Iter.     Column Row Layer    Maximum-Head-Change  Column Row Layer    Maximum-Flux-Residual          L2-NORM 
          0                 1           2             4    7     1      -0.1506332193E+00       4    7    1        -0.7894789757E+01      0.1740796410E+02
          0                 2           2             4    7     1       0.1465217430E-01       4    7    1         0.7894568720E+00      0.1740770030E+01
          0                 3           2             4    7     1      -0.9977619808E-03       4    7    1        -0.5526221403E-01      0.1218542032E+00
          0                 4           1             4    7     1       0.3970186811E-04       4    7    1         0.2260226743E-02      0.4983843196E-02

    ------------------------------------------------
       NWT REQUIRED            4 OUTER ITERATIONS 
       AND A TOTAL OF          7 INNER ITERATIONS.
    ------------------------------------------------

 NO OUTPUT CONTROL FOR STRESS PERIOD   44   TIME STEP   10
 
 SOLVING FOR HEAD 
                                                   Max.-Head-Change                         Max.-Flux-Residual
  Residual-Control   Outer-Iter.   Inner-Iter.     Column Row Layer    Maximum-Head-Change  Column Row Layer    Maximum-Flux-Residual          L2-NORM 
          0                 1           2             4    7     1      -0.1493078066E+00       4    7    1        -0.7826662616E+01      0.1719675829E+02
          0                 2           2             4    7     1       0.1452324465E-01       4    7    1         0.7826439395E+00      0.1719649742E+01
          0                 3           2             4    7     1      -0.9889823804E-03       4    7    1        -0.5478531061E-01      0.1203757790E+00
          0                 4           1             4    7     1       0.3935251940E-04       4    7    1         0.2240721352E-02      0.4923375366E-02

    ------------------------------------------------
       NWT REQUIRED            4 OUTER ITERATIONS 
       AND A TOTAL OF          7 INNER ITERATIONS.
    ------------------------------------------------

 NO OUTPUT CONTROL FOR STRESS PERIOD   44   TIME STEP   11
 
 SOLVING FOR HEAD 
                                                   Max.-Head-Change                         Max.-Flux-Residual
  Residual-Control   Outer-Iter.   Inner-Iter.     Column Row Layer    Maximum-Head-Change  Column Row Layer    Maximum-Flux-Residual          L2-NORM 
          0                 1           2             4    7     1      -0.1479707734E+00       4    7    1        -0.7757795729E+01      0.1699326450E+02
          0                 2           2             4    7     1       0.1439318556E-01       4    7    1         0.7757570930E+00      0.1699300686E+01
          0                 3           2             4    7     1      -0.9801258600E-03       4    7    1        -0.5430323266E-01      0.1189513419E+00
          0                 4           1             4    7     1       0.3900011001E-04       4    7    1         0.2221004315E-02      0.4865115708E-02

    ------------------------------------------------
       NWT REQUIRED            4 OUTER ITERATIONS 
       AND A TOTAL OF          7 INNER ITERATIONS.
    ------------------------------------------------

 NO OUTPUT CONTROL FOR STRESS PERIOD   44   TIME STEP   12
 
 SOLVING FOR HEAD 
                                                   Max.-Head-Change                         Max.-Flux-Residual
  Residual-Control   Outer-Iter.   Inner-Iter.     Column Row Layer    Maximum-Head-Change  Column Row Layer    Maximum-Flux-Residual          L2-NORM 
          0                 1           2             4    7     1      -0.1466244612E+00       4    7    1        -0.7688320104E+01      0.1679700893E+02
          0                 2           2             4    7     1       0.1426222468E-01       4    7    1         0.7688094282E+00      0.1679675476E+01
          0                 3           2             4    7     1      -0.9712079234E-03       4    7    1        -0.5381689688E-01      0.1175775728E+00
          0                 4           1             4    7     1       0.3864525670E-04       4    7    1         0.2201113145E-02      0.4808928173E-02

    ------------------------------------------------
       NWT REQUIRED            4 OUTER ITERATIONS 
       AND A TOTAL OF          7 INNER ITERATIONS.
    ------------------------------------------------

 NO OUTPUT CONTROL FOR STRESS PERIOD   44   TIME STEP   13
 
 SOLVING FOR HEAD 
                                                   Max.-Head-Change                         Max.-Flux-Residual
  Residual-Control   Outer-Iter.   Inner-Iter.     Column Row Layer    Maximum-Head-Change  Column Row Layer    Maximum-Flux-Residual          L2-NORM 
          0                 1           2             4    7     1      -0.1452711376E+00       4    7    1        -0.7618362509E+01      0.1660757538E+02
          0                 2           2             4    7     1       0.1413058076E-01       4    7    1         0.7618136167E+00      0.1660681379E+01
          0                 3           2             4    7     1      -0.9622434671E-03       4    7    1        -0.5332719035E-01      0.1162479816E+00
          0                 4           1             4    7     1       0.3828855294E-04       4    7    1         0.2181084125E-02      0.4754548433E-02

    ------------------------------------------------
       NWT REQUIRED            4 OUTER ITERATIONS 
       AND A TOTAL OF          7 INNER ITERATIONS.
    ------------------------------------------------

 NO OUTPUT CONTROL FOR STRESS PERIOD   44   TIME STEP   14
 
 SOLVING FOR HEAD 
                                                   Max.-Head-Change                         Max.-Flux-Residual
  Residual-Control   Outer-Iter.   Inner-Iter.     Column Row Layer    Maximum-Head-Change  Column Row Layer    Maximum-Flux-Residual          L2-NORM 
          0                 1           2             4    7     1      -0.1439129468E+00       4    7    1        -0.7548042527E+01      0.1642462513E+02
          0                 2           2             4    7     1       0.1399846760E-01       4    7    1         0.7547816121E+00      0.1642437879E+01
          0                 3           2             4    7     1      -0.9532470507E-03       4    7    1        -0.5283494988E-01      0.1149709332E+00
          0                 4           1             4    7     1       0.3793057691E-04       4    7    1         0.2160951470E-02      0.4702316994E-02

    ------------------------------------------------
       NWT REQUIRED            4 OUTER ITERATIONS 
       AND A TOTAL OF          7 INNER ITERATIONS.
    ------------------------------------------------

 NO OUTPUT CONTROL FOR STRESS PERIOD   44   TIME STEP   15
 
 SOLVING FOR HEAD 
                                                   Max.-Head-Change                         Max.-Flux-Residual
  Residual-Control   Outer-Iter.   Inner-Iter.     Column Row Layer    Maximum-Head-Change  Column Row Layer    Maximum-Flux-Residual          L2-NORM 
          0                 1           2             4    7     1      -0.1425516928E+00       4    7    1        -0.7477461880E+01      0.1624776566E+02
          0                 2           2             4    7     1       0.1386605531E-01       4    7    1         0.7477235825E+00      0.1624752331E+01
          0                 3           2             4    7     1      -0.9442302590E-03       4    7    1        -0.5234088725E-01      0.1137329399E+00
          0                 4           1             4    7     1       0.3757179049E-04       4    7    1         0.2140744271E-02      0.4651682573E-02

    ------------------------------------------------
       NWT REQUIRED            4 OUTER ITERATIONS 
       AND A TOTAL OF          7 INNER ITERATIONS.
    ------------------------------------------------

 NO OUTPUT CONTROL FOR STRESS PERIOD   44   TIME STEP   16
 
 SOLVING FOR HEAD 
                                                   Max.-Head-Change                         Max.-Flux-Residual
  Residual-Control   Outer-Iter.   Inner-Iter.     Column Row Layer    Maximum-Head-Change  Column Row Layer    Maximum-Flux-Residual          L2-NORM 
          0                 1           2             4    7     1      -0.1411894827E+00       4    7    1        -0.7406738086E+01      0.1607666687E+02
          0                 2           2             4    7     1       0.1373355057E-01       4    7    1         0.7406512751E+00      0.1607642861E+01
          0                 3           2             4    7     1      -0.9352071664E-03       4    7    1        -0.5184582485E-01      0.1125352730E+00
          0                 4           1             4    7     1       0.3721275310E-04       4    7    1         0.2120496198E-02      0.4602697908E-02

    ------------------------------------------------
       NWT REQUIRED            4 OUTER ITERATIONS 
       AND A TOTAL OF          7 INNER ITERATIONS.
    ------------------------------------------------

 NO OUTPUT CONTROL FOR STRESS PERIOD   44   TIME STEP   17
 
 SOLVING FOR HEAD 
                                                   Max.-Head-Change                         Max.-Flux-Residual
  Residual-Control   Outer-Iter.   Inner-Iter.     Column Row Layer    Maximum-Head-Change  Column Row Layer    Maximum-Flux-Residual          L2-NORM 
          0                 1           2             4    7     1      -0.1398277098E+00       4    7    1        -0.7335950306E+01      0.1591101154E+02
          0                 2           2             4    7     1       0.1360108884E-01       4    7    1         0.7335726028E+00      0.1591077744E+01
          0                 3           2             4    7     1      -0.9261869974E-03       4    7    1        -0.5135031657E-01      0.1113757096E+00
          0                 4           1             4    7     1       0.3685383221E-04       4    7    1         0.2100229880E-02      0.4555271917E-02

    ------------------------------------------------
       NWT REQUIRED            4 OUTER ITERATIONS 
       AND A TOTAL OF          7 INNER ITERATIONS.
    ------------------------------------------------

 NO OUTPUT CONTROL FOR STRESS PERIOD   44   TIME STEP   18
 
 SOLVING FOR HEAD 
                                                   Max.-Head-Change                         Max.-Flux-Residual
  Residual-Control   Outer-Iter.   Inner-Iter.     Column Row Layer    Maximum-Head-Change  Column Row Layer    Maximum-Flux-Residual          L2-NORM 
          0                 1           2             4    7     1      -0.1384678951E+00       4    7    1        -0.7265184347E+01      0.1575051692E+02
          0                 2           2             4    7     1       0.1346881805E-01       4    7    1         0.7264961427E+00      0.1575028702E+01
          0                 3           2             4    7     1      -0.9171798263E-03       4    7    1        -0.5085496287E-01      0.1102522732E+00
          0                 4           1             4    7     1       0.3649542871E-04       4    7    1         0.2079969903E-02      0.4509323235E-02

    ------------------------------------------------
       NWT REQUIRED            4 OUTER ITERATIONS 
       AND A TOTAL OF          7 INNER ITERATIONS.
    ------------------------------------------------

 NO OUTPUT CONTROL FOR STRESS PERIOD   44   TIME STEP   19
 
 SOLVING FOR HEAD 
                                                   Max.-Head-Change                         Max.-Flux-Residual
  Residual-Control   Outer-Iter.   Inner-Iter.     Column Row Layer    Maximum-Head-Change  Column Row Layer    Maximum-Flux-Residual          L2-NORM 
          0                 1           2             4    7     1      -0.1371117256E+00       4    7    1        -0.7194534544E+01      0.1559493582E+02
          0                 2           2             4    7     1       0.1333690221E-01       4    7    1         0.7194313248E+00      0.1559471015E+01
          0                 3           2             4    7     1      -0.9081968225E-03       4    7    1        -0.5036042386E-01      0.1091632298E+00
          0                 4           1             4    7     1       0.3613798675E-04       4    7    1         0.2059743228E-02      0.4464781573E-02

    ------------------------------------------------
       NWT REQUIRED            4 OUTER ITERATIONS 
       AND A TOTAL OF          7 INNER ITERATIONS.
    ------------------------------------------------

 NO OUTPUT CONTROL FOR STRESS PERIOD   44   TIME STEP   20
 
 SOLVING FOR HEAD 
                                                   Max.-Head-Change                         Max.-Flux-Residual
  Residual-Control   Outer-Iter.   Inner-Iter.     Column Row Layer    Maximum-Head-Change  Column Row Layer    Maximum-Flux-Residual          L2-NORM 
          0                 1           2             4    7     1      -0.1357602492E+00       4    7    1        -0.7124061252E+01      0.1544400667E+02
          0                 2           2             4    7     1       0.1320544323E-01       4    7    1         0.7123841819E+00      0.1544378948E+01
          0                 3           2             4    7     1      -0.8992449191E-03       4    7    1        -0.4986712188E-01      0.1081033299E+00
          0                 4           1             4    7     1       0.3578178207E-04       4    7    1         0.2039567154E-02      0.4421437161E-02

    ------------------------------------------------
       NWT REQUIRED            4 OUTER ITERATIONS 
       AND A TOTAL OF          7 INNER ITERATIONS.
    ------------------------------------------------

 NO OUTPUT CONTROL FOR STRESS PERIOD   44   TIME STEP   21
 
 SOLVING FOR HEAD 
                                                   Max.-Head-Change                         Max.-Flux-Residual
  Residual-Control   Outer-Iter.   Inner-Iter.     Column Row Layer    Maximum-Head-Change  Column Row Layer    Maximum-Flux-Residual          L2-NORM 
          0                 1           2             4    7     1      -0.1344147509E+00       4    7    1        -0.7053836751E+01      0.1529751499E+02
          0                 2           2             4    7     1       0.1307456615E-01       4    7    1         0.7053619393E+00      0.1529767664E+01
          0                 3           2             4    7     1      -0.8903326514E-03       4    7    1        -0.4937556273E-01      0.1070839854E+00
          0                 4           1             4    7     1       0.3542715498E-04       4    7    1         0.2019462385E-02      0.4379740162E-02

    ------------------------------------------------
       NWT REQUIRED            4 OUTER ITERATIONS 
       AND A TOTAL OF          7 INNER ITERATIONS.
    ------------------------------------------------

 NO OUTPUT CONTROL FOR STRESS PERIOD   44   TIME STEP   22
 
 SOLVING FOR HEAD 
                                                   Max.-Head-Change                         Max.-Flux-Residual
  Residual-Control   Outer-Iter.   Inner-Iter.     Column Row Layer    Maximum-Head-Change  Column Row Layer    Maximum-Flux-Residual          L2-NORM 
          0                 1           2             4    7     1      -0.1330763065E+00       4    7    1        -0.6983922318E+01      0.1515521158E+02
          0                 2           2             4    7     1       0.1294437534E-01       4    7    1         0.6983707221E+00      0.1515506145E+01
          0                 3           2             4    7     1      -0.8814671065E-03       4    7    1        -0.4888617518E-01      0.1060856745E+00
          0                 4           1             4    7     1       0.3507438686E-04       4    7    1         0.1999446399E-02      0.4338909229E-02

    ------------------------------------------------
       NWT REQUIRED            4 OUTER ITERATIONS 
       AND A TOTAL OF          7 INNER ITERATIONS.
    ------------------------------------------------

 NO OUTPUT CONTROL FOR STRESS PERIOD   44   TIME STEP   23
 
 SOLVING FOR HEAD 
                                                   Max.-Head-Change                         Max.-Flux-Residual
  Residual-Control   Outer-Iter.   Inner-Iter.     Column Row Layer    Maximum-Head-Change  Column Row Layer    Maximum-Flux-Residual          L2-NORM 
          0                 1           2             4    7     1      -0.1317459252E+00       4    7    1        -0.6914375648E+01      0.1501692942E+02
          0                 2           2             4    7     1       0.1281496917E-01       4    7    1         0.6914162975E+00      0.1501672232E+01
          0                 3           2             4    7     1      -0.8726549903E-03       4    7    1        -0.4839936295E-01      0.1051172958E+00
          0                 4           1             4    7     1       0.3472374434E-04       4    7    1         0.1979535774E-02      0.4299303331E-02

    ------------------------------------------------
       NWT REQUIRED            4 OUTER ITERATIONS 
       AND A TOTAL OF          7 INNER ITERATIONS.
    ------------------------------------------------

 NO OUTPUT CONTROL FOR STRESS PERIOD   44   TIME STEP   24
 
 SOLVING FOR HEAD 
                                                   Max.-Head-Change                         Max.-Flux-Residual
  Residual-Control   Outer-Iter.   Inner-Iter.     Column Row Layer    Maximum-Head-Change  Column Row Layer    Maximum-Flux-Residual          L2-NORM 
          0                 1           2             4    7     1      -0.1304244582E+00       4    7    1        -0.6845245252E+01      0.1488244567E+02
          0                 2           2             4    7     1       0.1268643032E-01       4    7    1         0.6845035146E+00      0.1488224277E+01
          0                 3           2             4    7     1      -0.8639019333E-03       4    7    1        -0.4791546550E-01      0.1041759345E+00
          0                 4           1             4    7     1       0.3437545227E-04       4    7    1         0.1959744346E-02      0.4260800538E-02

    ------------------------------------------------
       NWT REQUIRED            4 OUTER ITERATIONS 
       AND A TOTAL OF          7 INNER ITERATIONS.
    ------------------------------------------------

 NO OUTPUT CONTROL FOR STRESS PERIOD   44   TIME STEP   25
 
 SOLVING FOR HEAD 
                                                   Max.-Head-Change                         Max.-Flux-Residual
  Residual-Control   Outer-Iter.   Inner-Iter.     Column Row Layer    Maximum-Head-Change  Column Row Layer    Maximum-Flux-Residual          L2-NORM 
          0                 1           2             4    7     1      -0.1291128559E+00       4    7    1        -0.6776585358E+01      0.1475162838E+02
          0                 2           2             4    7     1       0.1255885120E-01       4    7    1         0.6776377941E+00      0.1475142962E+01
          0                 3           2             4    7     1      -0.8552142288E-03       4    7    1        -0.4743486231E-01      0.1032602385E+00
          0                 4           1             4    7     1       0.3402976081E-04       4    7    1         0.1940087660E-02      0.4223350190E-02

    ------------------------------------------------
       NWT REQUIRED            4 OUTER ITERATIONS 
       AND A TOTAL OF          7 INNER ITERATIONS.
    ------------------------------------------------

 NO OUTPUT CONTROL FOR STRESS PERIOD   44   TIME STEP   26
 
 SOLVING FOR HEAD 
                                                   Max.-Head-Change                         Max.-Flux-Residual
  Residual-Control   Outer-Iter.   Inner-Iter.     Column Row Layer    Maximum-Head-Change  Column Row Layer    Maximum-Flux-Residual          L2-NORM 
          0                 1           2             4    7     1      -0.1278116982E+00       4    7    1        -0.6708429810E+01      0.1462433214E+02
          0                 2           2             4    7     1       0.1243228823E-01       4    7    1         0.6708225186E+00      0.1462413748E+01
          0                 3           2             4    7     1      -0.8465957187E-03       4    7    1        -0.4695779017E-01      0.1023691895E+00
          0                 4           1             4    7     1       0.3368682263E-04       4    7    1         0.1920575399E-02      0.4186905181E-02

    ------------------------------------------------
       NWT REQUIRED            4 OUTER ITERATIONS 
       AND A TOTAL OF          7 INNER ITERATIONS.
    ------------------------------------------------

 NO OUTPUT CONTROL FOR STRESS PERIOD   44   TIME STEP   27
 
 SOLVING FOR HEAD 
                                                   Max.-Head-Change                         Max.-Flux-Residual
  Residual-Control   Outer-Iter.   Inner-Iter.     Column Row Layer    Maximum-Head-Change  Column Row Layer    Maximum-Flux-Residual          L2-NORM 
          0                 1           2             4    7     1      -0.1265217461E+00       4    7    1        -0.6640822209E+01      0.1450039823E+02
          0                 2           2             4    7     1       0.1230681537E-01       4    7    1         0.6640620468E+00      0.1450020724E+01
          0                 3           2             4    7     1      -0.8380514398E-03       4    7    1        -0.4648455422E-01      0.1015016726E+00
          0                 4           1             4    7     1       0.3334683781E-04       4    7    1         0.1901220020E-02      0.4151423438E-02

    ------------------------------------------------
       NWT REQUIRED            4 OUTER ITERATIONS 
       AND A TOTAL OF          7 INNER ITERATIONS.
    ------------------------------------------------

 NO OUTPUT CONTROL FOR STRESS PERIOD   44   TIME STEP   28
 
 SOLVING FOR HEAD 
                                                   Max.-Head-Change                         Max.-Flux-Residual
  Residual-Control   Outer-Iter.   Inner-Iter.     Column Row Layer    Maximum-Head-Change  Column Row Layer    Maximum-Flux-Residual          L2-NORM 
          0                 1           2             4    7     1      -0.1252434717E+00       4    7    1        -0.6573790385E+01      0.1437968778E+02
          0                 2           2             4    7     1       0.1218248552E-01       4    7    1         0.6573591601E+00      0.1437947184E+01
          0                 3           2             4    7     1      -0.8295917666E-03       4    7    1        -0.4601534916E-01      0.1006586389E+00
          0                 4           1             4    7     1       0.3301022002E-04       4    7    1         0.1882029531E-02      0.4116943484E-02

    ------------------------------------------------
       NWT REQUIRED            4 OUTER ITERATIONS 
       AND A TOTAL OF          7 INNER ITERATIONS.
    ------------------------------------------------

 NO OUTPUT CONTROL FOR STRESS PERIOD   44   TIME STEP   29
 
 SOLVING FOR HEAD 
                                                   Max.-Head-Change                         Max.-Flux-Residual
  Residual-Control   Outer-Iter.   Inner-Iter.     Column Row Layer    Maximum-Head-Change  Column Row Layer    Maximum-Flux-Residual          L2-NORM 
          0                 1           2             4    7     1      -0.1239776148E+00       4    7    1        -0.6507376716E+01      0.1426207163E+02
          0                 2           2             4    7     1       0.1205917607E-01       4    7    1         0.6507180950E+00      0.1426140141E+01
          0                 3           2             4    7     1      -0.8211880362E-03       4    7    1        -0.4555047172E-01      0.9983002279E-01
          0                 4           1             4    7     1       0.3267582776E-04       4    7    1         0.1863016045E-02      0.4083052933E-02

    ------------------------------------------------
       NWT REQUIRED            4 OUTER ITERATIONS 
       AND A TOTAL OF          7 INNER ITERATIONS.
    ------------------------------------------------

 NO OUTPUT CONTROL FOR STRESS PERIOD   44   TIME STEP   30



 STREAM LISTING     PERIOD     44   STEP       30

 LAYER ROW COL. STREAM  RCH.  FLOW INTO     FLOW TO   FLOW OUT OF   OVRLND.     DIRECT     STREAM       STREAM     STREAM     STREAM   STREAMBED  STREAMBED
                SEG.NO.  NO.  STRM. RCH.    AQUIFER    STRM. RCH.    RUNOFF     PRECIP       ET          HEAD       DEPTH      WIDTH   CONDCTNC.   GRADIENT

   1    1    1     1     1    1.9000E+01  2.1427E-01   1.8786E+01  0.000E+00  0.000E+00  0.000E+00  1.09413E+03  1.082E+00  1.166E+01  5.249E-02  1.361E+00
   1    2    2     1     2    1.8786E+01  3.3054E-01   1.8455E+01  0.000E+00  0.000E+00  0.000E+00  1.08914E+03  1.077E+00  1.158E+01  8.107E-02  1.359E+00
   1    3    3     1     3    1.8455E+01  2.8064E-01   1.8175E+01  0.000E+00  0.000E+00  0.000E+00  1.08349E+03  1.072E+00  1.149E+01  6.892E-02  1.357E+00
   1    3    4     1     4    1.8175E+01  2.5740E-01   1.7917E+01  0.000E+00  0.000E+00  0.000E+00  1.07848E+03  1.068E+00  1.140E+01  6.328E-02  1.356E+00
   1    4    5     2     1    1.5917E+01  3.0542E-01   1.5612E+01  0.000E+00  0.000E+00  0.000E+00  1.07285E+03  9.157E-01  1.200E+01  7.800E-02  1.305E+00
   1    5    6     2     2    1.5612E+01  2.3438E-01   1.5377E+01  0.000E+00  0.000E+00  0.000E+00  1.06742E+03  9.063E-01  1.200E+01  6.000E-02  1.302E+00
   1    6    6     2     3    1.5377E+01  2.3388E-01   1.5143E+01  0.000E+00  0.000E+00  0.000E+00  1.06269E+03  8.980E-01  1.200E+01  6.000E-02  1.299E+00
   1    7    6     2     4    1.5143E+01  2.3338E-01   1.4910E+01  0.000E+00  0.000E+00  0.000E+00  1.05797E+03  8.897E-01  1.200E+01  6.000E-02  1.297E+00
   1    8    6     2     5    1.4910E+01  2.3289E-01   1.4677E+01  0.000E+00  0.000E+00  0.000E+00  1.05324E+03  8.814E-01  1.200E+01  6.000E-02  1.294E+00
   1    3    5     3     1    2.0000E+00  2.8252E-01   1.7175E+00  0.000E+00  0.000E+00  0.000E+00  1.07555E+03  1.909E+00  9.636E+00  7.227E-02  1.955E+00
   1    3    6     3     2    1.7175E+00  2.4905E-01   1.4684E+00  0.000E+00  0.000E+00  0.000E+00  1.07264E+03  1.727E+00  8.909E+00  6.682E-02  1.864E+00
   1    3    7     3     3    1.4684E+00  1.9718E-01   1.2712E+00  0.000E+00  0.000E+00  0.000E+00  1.06987E+03  1.555E+00  8.218E+00  5.547E-02  1.777E+00
   1    4    8     3     4    1.2712E+00  2.2567E-01   1.0456E+00  0.000E+00  0.000E+00  0.000E+00  1.06682E+03  1.364E+00  7.455E+00  6.709E-02  1.682E+00
   1    5    8     3     5    1.0456E+00  1.5790E-01   8.8768E-01  0.000E+00  0.000E+00  0.000E+00  1.06362E+03  1.164E+00  6.655E+00  4.991E-02  1.582E+00
   1    6    8     3     6    8.8768E-01  5.5980E-02   8.3170E-01  0.000E+00  0.000E+00  0.000E+00  1.06158E+03  1.036E+00  6.145E+00  1.844E-02  1.518E+00
   1    5   10     4     1    1.0000E+01  9.0919E-02   9.9091E+00  0.000E+00  0.000E+00  0.000E+00  1.07836E+03  6.368E-01  1.000E+01  2.500E-02  1.212E+00
   1    5    9     4     2    9.9091E+00  1.8158E-01   9.7275E+00  0.000E+00  0.000E+00  0.000E+00  1.07154E+03  6.315E-01  1.000E+01  5.000E-02  1.211E+00
   1    6    8     4     3    9.7275E+00  1.2689E-01   9.6006E+00  0.000E+00  0.000E+00  0.000E+00  1.06381E+03  6.256E-01  1.000E+01  3.500E-02  1.209E+00
   1    6    8     5     1    1.0432E+01  2.2686E-01   1.0205E+01  0.000E+00  0.000E+00  0.000E+00  1.05868E+03  6.790E-01  1.542E+01  6.166E-02  1.226E+00
   1    7    7     5     2    1.0205E+01  2.7894E-01   9.9265E+00  0.000E+00  0.000E+00  0.000E+00  1.05417E+03  6.732E-01  1.519E+01  7.594E-02  1.224E+00
   1    8    7     5     3    9.9265E+00  1.9221E-01   9.7343E+00  0.000E+00  0.000E+00  0.000E+00  1.04992E+03  6.676E-01  1.497E+01  5.241E-02  1.223E+00
   1    8    6     5     4    9.7343E+00  1.3577E-01   9.5985E+00  0.000E+00  0.000E+00  0.000E+00  1.04691E+03  6.637E-01  1.482E+01  3.706E-02  1.221E+00
   1    9    6     6     1    2.4276E+01  2.5176E-01   2.4024E+01  0.000E+00  0.000E+00  0.000E+00  1.04392E+03  1.196E+00  1.200E+01  6.000E-02  1.399E+00
   1   10    7     6     2    2.4024E+01  2.5131E-01   2.3773E+01  0.000E+00  0.000E+00  0.000E+00  1.03937E+03  1.188E+00  1.200E+01  6.000E-02  1.396E+00
   1   11    7     6     3    2.3773E+01  2.5086E-01   2.3522E+01  0.000E+00  0.000E+00  0.000E+00  1.03482E+03  1.181E+00  1.200E+01  6.000E-02  1.394E+00
   1   12    7     6     4    2.3522E+01  2.5041E-01   2.3271E+01  0.000E+00  0.000E+00  0.000E+00  1.03026E+03  1.173E+00  1.200E+01  6.000E-02  1.391E+00
   1   13    7     6     5    2.3271E+01  1.1271E-02   2.3260E+01  0.000E+00  0.000E+00  0.000E+00  1.02708E+03  1.170E+00  1.200E+01  2.400E-02  1.565E-01
   1   14    9     7     1    1.5000E+02  1.3730E+00   1.4863E+02  0.000E+00  0.000E+00  0.000E+00  1.03987E+03  2.288E+00  5.529E+01  5.593E-01  8.183E-01
   1   13    8     7     2    1.4863E+02  1.9764E+00   1.4665E+02  0.000E+00  0.000E+00  0.000E+00  1.03478E+03  2.279E+00  5.525E+01  6.147E-01  1.072E+00
   1   13    7     7     3    1.4665E+02  1.7193E+00   1.4493E+02  0.000E+00  0.000E+00  0.000E+00  1.02969E+03  2.269E+00  5.521E+01  5.584E-01  1.026E+00
   1   13    6     8     1    1.6819E+02  1.1505E+00   1.6704E+02  0.000E+00  0.000E+00  0.000E+00  1.02481E+03  2.937E+00  4.258E+01  4.339E-01  8.838E-01
   1   13    5     8     2    1.6704E+02  3.8384E-01   1.6666E+02  0.000E+00  0.000E+00  0.000E+00  1.01856E+03  2.932E+00  4.251E+01  4.332E-01  2.954E-01
   1   13    4     8     3    1.6666E+02 -1.7487E+00   1.6841E+02  0.000E+00  0.000E+00  0.000E+00  1.01231E+03  2.936E+00  4.257E+01  4.338E+00 -1.344E-01
   1   13    3     8     4    1.6841E+02 -3.3076E+00   1.7171E+02  0.000E+00  0.000E+00  0.000E+00  1.00608E+03  2.953E+00  4.281E+01  4.363E+00 -2.527E-01
   1   13    2     8     5    1.7171E+02 -2.4899E+00   1.7420E+02  0.000E+00  0.000E+00  0.000E+00  9.99846E+02  2.971E+00  4.308E+01  4.390E+00 -1.890E-01
   1   13    1     8     6    1.7420E+02 -1.9592E+00   1.7616E+02  0.000E+00  0.000E+00  0.000E+00  9.94861E+02  2.986E+00  4.329E+01  2.647E+00 -2.467E-01





UNSATURATED ZONE PACKAGE VOLUMETRIC BUDGET FOR  TIME STEP    30 STRESS PERIOD   44
  ------------------------------------------------------------------------------



     CUMULATIVE VOLUMES      L**3       RATES FOR THIS TIME STEP      L**3/T
     ------------------                 ------------------------

           IN:                                      IN:
           ---                                      ---
        INFILTRATION =  1935310922.3533          INFILTRATION =          64.0339

          OUT:                                     OUT:
          ----                                     ----
              UZF ET =  1807956841.3907                UZF ET =          64.1075
        UZF RECHARGE =     1368945.9418          UZF RECHARGE =           0.0029

            IN - OUT =   125985135.0207              IN - OUT =      -7.6578E-02

          STORAGE:                                 STORAGE:
          --------                                 --------
      STORAGE CHANGE =   125986761.8997        STORAGE CHANGE =      -7.6579E-02

 PERCENT DISCREPANCY IS DIFFERENCE BETWEEN IN-OUT MINUS CHANGE IN STORAGE
 DIVIDED BY THE AVERAGE OF IN AND OUT TIMES 100

 PERCENT DISCREPANCY =          -0.00     PERCENT DISCREPANCY =           0.00






1
  VOLUMETRIC BUDGET FOR ENTIRE MODEL AT END OF TIME STEP   30, STRESS PERIOD  44
  ------------------------------------------------------------------------------

     CUMULATIVE VOLUMES      L**3       RATES FOR THIS TIME STEP      L**3/T
     ------------------                 ------------------------

           IN:                                      IN:
           ---                                      ---
               AG WELLS  =  1436793856.0000                 AG WELLS  =          59.6264
      DIVERSION SEGMENTS =           0.0000        DIVERSION SEGMENTS =           0.0000
           GW IRRIGATION =           0.0000             GW IRRIGATION =           0.0000
           SW IRRIGATION =           0.0000             SW IRRIGATION =           0.0000
        SYSTEM LOSSES GW =           0.0000          SYSTEM LOSSES GW =           0.0000
        SYSTEM LOSSES SW =           0.0000          SYSTEM LOSSES SW =           0.0000

                TOTAL IN =  1436793856.0000                  TOTAL IN =          59.6264

          OUT:                                     OUT:
          ----                                     ----
               AG WELLS  =           0.0000                 AG WELLS  =           0.0000
      DIVERSION SEGMENTS =           0.0000        DIVERSION SEGMENTS =           0.0000
           GW IRRIGATION =  1436793856.0000             GW IRRIGATION =          59.6264
           SW IRRIGATION =           0.0000             SW IRRIGATION =           0.0000
        SYSTEM LOSSES GW =           0.0000          SYSTEM LOSSES GW =           0.0000
        SYSTEM LOSSES SW =           0.0000          SYSTEM LOSSES SW =           0.0000

               TOTAL OUT =  1436793856.0000                 TOTAL OUT =          59.6264

                IN - OUT =           0.0000                  IN - OUT =           0.0000

     PERCENT DISCREPANCY =           0.00         PERCENT DISCREPANCY =           0.00



1
  VOLUMETRIC BUDGET FOR ENTIRE MODEL AT END OF TIME STEP   30, STRESS PERIOD  44
  ------------------------------------------------------------------------------

     CUMULATIVE VOLUMES      L**3       RATES FOR THIS TIME STEP      L**3/T
     ------------------                 ------------------------

           IN:                                      IN:
           ---                                      ---
             STORAGE     =  1909817600.0000               STORAGE     =          56.8045
       CONSTANT HEAD     =           0.0000         CONSTANT HEAD     =           0.0000
     HEAD DEP BOUNDS     =    32386180.0000       HEAD DEP BOUNDS     =           0.2883
      STREAM LEAKAGE     =  1385772288.0000        STREAM LEAKAGE     =          12.3430
        UZF RECHARGE     =     1368945.7500          UZF RECHARGE     =       2.9340E-03
               GW ET     =           0.0000                 GW ET     =           0.0000
     SURFACE LEAKAGE     =           0.0000       SURFACE LEAKAGE     =           0.0000
           AG WELLS      =           0.0000             AG WELLS      =           0.0000

                TOTAL IN =  3329344768.0000                  TOTAL IN =          69.4388

          OUT:                                     OUT:
          ----                                     ----
             STORAGE     =   692324352.0000               STORAGE     =       1.8402E-02
       CONSTANT HEAD     =           0.0000         CONSTANT HEAD     =           0.0000
     HEAD DEP BOUNDS     =    33032658.0000       HEAD DEP BOUNDS     =           0.2888
      STREAM LEAKAGE     =  1149877504.0000        STREAM LEAKAGE     =           9.5054
        UZF RECHARGE     =           0.0000          UZF RECHARGE     =           0.0000
               GW ET     =    17319432.0000                 GW ET     =           0.0000
     SURFACE LEAKAGE     =           0.0000       SURFACE LEAKAGE     =           0.0000
           AG WELLS      =  1436793856.0000             AG WELLS      =          59.6264

               TOTAL OUT =  3329347840.0000                 TOTAL OUT =          69.4390

                IN - OUT =       -3072.0000                  IN - OUT =      -1.9836E-04

     PERCENT DISCREPANCY =          -0.00         PERCENT DISCREPANCY =          -0.00






         TIME SUMMARY AT END OF TIME STEP   30 IN STRESS PERIOD   44
                    SECONDS     MINUTES      HOURS       DAYS        YEARS
                    -----------------------------------------------------------
   TIME STEP LENGTH  87667.      1461.1      24.352      1.0147     2.77799E-03
 STRESS PERIOD TIME 2.63000E+06  43833.      730.56      30.440     8.33397E-02
         TOTAL TIME 1.13175E+08 1.88626E+06  31438.      1309.9      3.5863    
1
1
                            STRESS PERIOD NO.   45, LENGTH =   2630000.    
                            -----------------------------------------------

                              NUMBER OF TIME STEPS =    30

                               MULTIPLIER FOR DELT =     1.000

                            INITIAL TIME STEP SIZE =   87666.66    

 REUSING NON-PARAMETER GHB CELLS FROM LAST STRESS PERIOD

      2 GHB CELLS

 REUSING STREAM SEGMENT DATA FROM LAST STRESS PERIOD



            AREAL INFILTRATION RATE
 READING ON UNIT   19 WITH FORMAT: (10F4.0)            

            1           2           3           4           5           6           7           8           9          10
 ........................................................................................................................
   1   1.2000E-09   0.000       0.000       0.000       0.000       0.000       0.000       0.000       0.000       0.000    
   2   2.1000E-09  2.0000E-09  8.0000E-10  8.5000E-09   0.000       0.000       0.000       0.000       0.000       0.000    
   3   5.0000E-10  1.1000E-09  8.8000E-09  5.5000E-09   0.000       0.000       0.000       0.000       0.000       0.000    
   4   8.5000E-09  1.1000E-09  1.1000E-09  1.1000E-09  2.0000E-09   0.000       0.000       0.000       0.000       0.000    
   5   8.5000E-09  1.1000E-09  1.1000E-09  1.1000E-09  1.1000E-09   0.000       0.000       0.000       0.000       0.000    
   6   8.5000E-09  5.2000E-09  2.1000E-09  1.1000E-09  1.5000E-09   0.000       0.000       0.000       0.000       0.000    
   7   8.5000E-09  5.2000E-09  2.1000E-09  1.2000E-09  2.0000E-09   0.000       0.000       0.000       0.000       0.000    
   8   5.0000E-10  5.2000E-09  2.1000E-09  1.2000E-09  5.0000E-09   0.000       0.000       0.000       0.000       0.000    
   9   5.0000E-10  5.2000E-09  2.1000E-09  1.2000E-09  5.0000E-09   0.000       0.000       0.000       0.000       0.000    
  10   5.0000E-10  5.2000E-09  2.1000E-09  1.2000E-09  5.8000E-09   0.000       0.000       0.000       0.000       0.000    
  11   1.0000E-10  1.1000E-09  1.1000E-09  1.2000E-09  5.0000E-09   0.000       0.000       0.000       0.000       0.000    
  12   1.1000E-09  1.1000E-09  1.1000E-09  1.1000E-09  2.0000E-09   0.000       0.000       0.000       0.000       0.000    
  13   1.1000E-09  2.2000E-09  2.2000E-09  2.1000E-09  1.0000E-09   0.000       0.000       0.000       0.000       0.000    
  14   2.0000E-10  5.5000E-09  5.5000E-09  5.2000E-09  1.0000E-09   0.000       0.000       0.000       0.000       0.000    
  15    0.000      8.8000E-09  8.8000E-09   0.000       0.000       0.000       0.000       0.000       0.000       0.000    

                  ET RATE =  3.250000E-07

 USING ET EXTINCTION DEPTH FROM PREVIOUS STRESS PERIOD. CURRENT PERIOD IS:      45

 USING EXTINCTION WATER CONTENT FROM PREVIOUS STRESS PERIOD. CURRENT PERIOD IS:      45

 USING AIR ENTRY PRESSURE FROM PREVIOUS STRESS PERIOD. CURRENT PERIOD IS:      45

 USING ROOT PRESSURE HEAD FROM PREVIOUS STRESS PERIOD. CURRENT PERIOD IS:      45

 USING ROOT ACTIVITY FROM PREVIOUS STRESS PERIOD. CURRENT PERIOD IS:      45

 PROCESSING AG STRESS PERIOD DATA

 READING AG STRESS PERIOD DATA

 READING IRRIGATION WELL

 END PROCESSING AG STRESS PERIOD DATA OPTIONS
 
 SOLVING FOR HEAD 
                                                   Max.-Head-Change                         Max.-Flux-Residual
  Residual-Control   Outer-Iter.   Inner-Iter.     Column Row Layer    Maximum-Head-Change  Column Row Layer    Maximum-Flux-Residual          L2-NORM 
          0                 1           2             4    7     1      -0.8680692429E-01       4    7    1        -0.4566603686E+01      0.1010722923E+02
          0                 2           2             4    7     1       0.8443771577E-02       4    7    1         0.4566485230E+00      0.1010736060E+01
          0                 3           2             4    7     1      -0.5749912540E-03       4    7    1        -0.3196552249E-01      0.7075162536E-01
          0                 4           1             4    7     1       0.2287943247E-04       4    7    1         0.1307391160E-02      0.2893745695E-02

    ------------------------------------------------
       NWT REQUIRED            4 OUTER ITERATIONS 
       AND A TOTAL OF          7 INNER ITERATIONS.
    ------------------------------------------------

 NO OUTPUT CONTROL FOR STRESS PERIOD   45   TIME STEP    1
 
 SOLVING FOR HEAD 
                                                   Max.-Head-Change                         Max.-Flux-Residual
  Residual-Control   Outer-Iter.   Inner-Iter.     Column Row Layer    Maximum-Head-Change  Column Row Layer    Maximum-Flux-Residual          L2-NORM 
          0                 1           2             4    7     1      -0.8575272318E-01       4    7    1        -0.4510327735E+01      0.1004493571E+02
          0                 2           2             4    7     1       0.8341231975E-02       4    7    1         0.4510213063E+00      0.1004485772E+01
          0                 3           2             4    7     1      -0.5680086333E-03       4    7    1        -0.3157161357E-01      0.7031410382E-01
          0                 4           1             4    7     1       0.2260158790E-04       4    7    1         0.1291280299E-02      0.2875850573E-02

    ------------------------------------------------
       NWT REQUIRED            4 OUTER ITERATIONS 
       AND A TOTAL OF          7 INNER ITERATIONS.
    ------------------------------------------------

 NO OUTPUT CONTROL FOR STRESS PERIOD   45   TIME STEP    2
 
 SOLVING FOR HEAD 
                                                   Max.-Head-Change                         Max.-Flux-Residual
  Residual-Control   Outer-Iter.   Inner-Iter.     Column Row Layer    Maximum-Head-Change  Column Row Layer    Maximum-Flux-Residual          L2-NORM 
          0                 1           2             4    7     1      -0.8472636266E-01       4    7    1        -0.4455549518E+01      0.9983955288E+01
          0                 2           2             4    7     1       0.8241400396E-02       4    7    1         0.4455438471E+00      0.9983878990E+00
          0                 3           2             4    7     1      -0.5612104206E-03       4    7    1        -0.3118818783E-01      0.6988725000E-01
          0                 4           1             4    7     1       0.2233108063E-04       4    7    1         0.1275598161E-02      0.2858395739E-02

    ------------------------------------------------
       NWT REQUIRED            4 OUTER ITERATIONS 
       AND A TOTAL OF          7 INNER ITERATIONS.
    ------------------------------------------------

 NO OUTPUT CONTROL FOR STRESS PERIOD   45   TIME STEP    3
 
 SOLVING FOR HEAD 
                                                   Max.-Head-Change                         Max.-Flux-Residual
  Residual-Control   Outer-Iter.   Inner-Iter.     Column Row Layer    Maximum-Head-Change  Column Row Layer    Maximum-Flux-Residual          L2-NORM 
          0                 1           2             4    7     1      -0.8372694683E-01       4    7    1        -0.4402221158E+01      0.9924357131E+01
          0                 2           2             4    7     1       0.8144189579E-02       4    7    1         0.4402113583E+00      0.9924282480E+00
          0                 3           2             4    7     1      -0.5545906746E-03       4    7    1        -0.3081491018E-01      0.6947007428E-01
          0                 4           1             4    7     1       0.2206767479E-04       4    7    1         0.1260331088E-02      0.2841352705E-02

    ------------------------------------------------
       NWT REQUIRED            4 OUTER ITERATIONS 
       AND A TOTAL OF          7 INNER ITERATIONS.
    ------------------------------------------------

 NO OUTPUT CONTROL FOR STRESS PERIOD   45   TIME STEP    4
 
 SOLVING FOR HEAD 
                                                   Max.-Head-Change                         Max.-Flux-Residual
  Residual-Control   Outer-Iter.   Inner-Iter.     Column Row Layer    Maximum-Head-Change  Column Row Layer    Maximum-Flux-Residual          L2-NORM 
          0                 1           2             4    7     1      -0.8275362914E-01       4    7    1        -0.4350298110E+01      0.9866069924E+01
          0                 2           2             4    7     1       0.8049517187E-02       4    7    1         0.4350193863E+00      0.9865996841E+00
          0                 3           2             4    7     1      -0.5481437882E-03       4    7    1        -0.3045146883E-01      0.6906207140E-01
          0                 4           1             4    7     1       0.2181114758E-04       4    7    1         0.1245466355E-02      0.2824641278E-02

    ------------------------------------------------
       NWT REQUIRED            4 OUTER ITERATIONS 
       AND A TOTAL OF          7 INNER ITERATIONS.
    ------------------------------------------------

 NO OUTPUT CONTROL FOR STRESS PERIOD   45   TIME STEP    5
 
 SOLVING FOR HEAD 
                                                   Max.-Head-Change                         Max.-Flux-Residual
  Residual-Control   Outer-Iter.   Inner-Iter.     Column Row Layer    Maximum-Head-Change  Column Row Layer    Maximum-Flux-Residual          L2-NORM 
          0                 1           2             4    7     1      -0.8180516576E-01       4    7    1        -0.4299712902E+01      0.9809026041E+01
          0                 2           2             4    7     1       0.7948564714E-02       4    7    1         0.4293224832E+00      0.9808399580E+00
          0                 3           2             4    7     1      -0.5412691751E-03       4    7    1        -0.3005267705E-01      0.6865889041E-01
          0                 4           1             4    7     1       0.2153760095E-04       4    7    1         0.1229155793E-02      0.2808152552E-02

    ------------------------------------------------
       NWT REQUIRED            4 OUTER ITERATIONS 
       AND A TOTAL OF          7 INNER ITERATIONS.
    ------------------------------------------------

 NO OUTPUT CONTROL FOR STRESS PERIOD   45   TIME STEP    6
 
 SOLVING FOR HEAD 
                                                   Max.-Head-Change                         Max.-Flux-Residual
  Residual-Control   Outer-Iter.   Inner-Iter.     Column Row Layer    Maximum-Head-Change  Column Row Layer    Maximum-Flux-Residual          L2-NORM 
          0                 1           2             4    7     1      -0.8091531381E-01       4    7    1        -0.4250902654E+01      0.9753221087E+01
          0                 2           2             4    7     1       0.7870715043E-02       4    7    1         0.4250809370E+00      0.9753151368E+00
          0                 3           2             4    7     1      -0.5359678709E-03       4    7    1        -0.2975576672E-01      0.6827215024E-01
          0                 4           1             4    7     1       0.2132665737E-04       4    7    1         0.1217012156E-02      0.2792334395E-02

    ------------------------------------------------
       NWT REQUIRED            4 OUTER ITERATIONS 
       AND A TOTAL OF          7 INNER ITERATIONS.
    ------------------------------------------------

 NO OUTPUT CONTROL FOR STRESS PERIOD   45   TIME STEP    7
 
 SOLVING FOR HEAD 
                                                   Max.-Head-Change                         Max.-Flux-Residual
  Residual-Control   Outer-Iter.   Inner-Iter.     Column Row Layer    Maximum-Head-Change  Column Row Layer    Maximum-Flux-Residual          L2-NORM 
          0                 1           2             4    7     1      -0.8003767323E-01       4    7    1        -0.4204196659E+01      0.9698631282E+01
          0                 2           2             4    7     1       0.7785348313E-02       4    7    1         0.4204105932E+00      0.9698562920E+00
          0                 3           2             4    7     1      -0.5301546756E-03       4    7    1        -0.2942884007E-01      0.6789003014E-01
          0                 4           1             4    7     1       0.2109534484E-04       4    7    1         0.1203640837E-02      0.2776705714E-02

    ------------------------------------------------
       NWT REQUIRED            4 OUTER ITERATIONS 
       AND A TOTAL OF          7 INNER ITERATIONS.
    ------------------------------------------------

 NO OUTPUT CONTROL FOR STRESS PERIOD   45   TIME STEP    8
 
 SOLVING FOR HEAD 
                                                   Max.-Head-Change                         Max.-Flux-Residual
  Residual-Control   Outer-Iter.   Inner-Iter.     Column Row Layer    Maximum-Head-Change  Column Row Layer    Maximum-Flux-Residual          L2-NORM 
          0                 1           2             4    7     1      -0.7918060033E-01       4    7    1        -0.4158594129E+01      0.9645136638E+01
          0                 2           2             4    7     1       0.7701982122E-02       4    7    1         0.4158505866E+00      0.9645069588E+00
          0                 3           2             4    7     1      -0.5244777117E-03       4    7    1        -0.2910963714E-01      0.6751557591E-01
          0                 4           1             4    7     1       0.2086945343E-04       4    7    1         0.1190585440E-02      0.2761506352E-02

    ------------------------------------------------
       NWT REQUIRED            4 OUTER ITERATIONS 
       AND A TOTAL OF          7 INNER ITERATIONS.
    ------------------------------------------------

 NO OUTPUT CONTROL FOR STRESS PERIOD   45   TIME STEP    9
 
 SOLVING FOR HEAD 
                                                   Max.-Head-Change                         Max.-Flux-Residual
  Residual-Control   Outer-Iter.   Inner-Iter.     Column Row Layer    Maximum-Head-Change  Column Row Layer    Maximum-Flux-Residual          L2-NORM 
          0                 1           2             4    7     1      -0.7834341674E-01       4    7    1        -0.4114059027E+01      0.9592685731E+01
          0                 2           2             4    7     1       0.7620550487E-02       4    7    1         0.4113973140E+00      0.9592619975E+00
          0                 3           2             4    7     1      -0.5189324848E-03       4    7    1        -0.2879790568E-01      0.6714843457E-01
          0                 4           1             4    7     1       0.2064880367E-04       4    7    1         0.1177835597E-02      0.2746374822E-02

    ------------------------------------------------
       NWT REQUIRED            4 OUTER ITERATIONS 
       AND A TOTAL OF          7 INNER ITERATIONS.
    ------------------------------------------------

 NO OUTPUT CONTROL FOR STRESS PERIOD   45   TIME STEP   10
 
 SOLVING FOR HEAD 
                                                   Max.-Head-Change                         Max.-Flux-Residual
  Residual-Control   Outer-Iter.   Inner-Iter.     Column Row Layer    Maximum-Head-Change  Column Row Layer    Maximum-Flux-Residual          L2-NORM 
          0                 1           2             4    7     1      -0.7752557968E-01       4    7    1        -0.4070562445E+01      0.9541238215E+01
          0                 2           2             4    7     1       0.7541000614E-02       4    7    1         0.4070478847E+00      0.9541173651E+00
          0                 3           2             4    7     1      -0.5135154003E-03       4    7    1        -0.2849344332E-01      0.6678830140E-01
          0                 4           1             4    7     1       0.2043325291E-04       4    7    1         0.1165383077E-02      0.2731644317E-02

    ------------------------------------------------
       NWT REQUIRED            4 OUTER ITERATIONS 
       AND A TOTAL OF          7 INNER ITERATIONS.
    ------------------------------------------------

 NO OUTPUT CONTROL FOR STRESS PERIOD   45   TIME STEP   11
 
 SOLVING FOR HEAD 
                                                   Max.-Head-Change                         Max.-Flux-Residual
  Residual-Control   Outer-Iter.   Inner-Iter.     Column Row Layer    Maximum-Head-Change  Column Row Layer    Maximum-Flux-Residual          L2-NORM 
          0                 1           2             4    7     1      -0.7672641637E-01       4    7    1        -0.4028068063E+01      0.9490781978E+01
          0                 2           2             4    7     1       0.7463267068E-02       4    7    1         0.4027986673E+00      0.9490699237E+00
          0                 3           2             4    7     1      -0.5082220026E-03       4    7    1        -0.2819599589E-01      0.6643497853E-01
          0                 4           1             4    7     1       0.2022262421E-04       4    7    1         0.1153217489E-02      0.2717195679E-02

    ------------------------------------------------
       NWT REQUIRED            4 OUTER ITERATIONS 
       AND A TOTAL OF          7 INNER ITERATIONS.
    ------------------------------------------------

 NO OUTPUT CONTROL FOR STRESS PERIOD   45   TIME STEP   12
 
 SOLVING FOR HEAD 
                                                   Max.-Head-Change                         Max.-Flux-Residual
  Residual-Control   Outer-Iter.   Inner-Iter.     Column Row Layer    Maximum-Head-Change  Column Row Layer    Maximum-Flux-Residual          L2-NORM 
          0                 1           2             4    7     1      -0.7594532190E-01       4    7    1        -0.3986543861E+01      0.9441256891E+01
          0                 2           2             4    7     1       0.7387291010E-02       4    7    1         0.3986464598E+00      0.9441194822E+00
          0                 3           2             4    7     1      -0.5030482837E-03       4    7    1        -0.2790533923E-01      0.6608844654E-01
          0                 4           1             4    7     1       0.2001675694E-04       4    7    1         0.1141329602E-02      0.2703021007E-02

    ------------------------------------------------
       NWT REQUIRED            4 OUTER ITERATIONS 
       AND A TOTAL OF          7 INNER ITERATIONS.
    ------------------------------------------------

 NO OUTPUT CONTROL FOR STRESS PERIOD   45   TIME STEP   13
 
 SOLVING FOR HEAD 
                                                   Max.-Head-Change                         Max.-Flux-Residual
  Residual-Control   Outer-Iter.   Inner-Iter.     Column Row Layer    Maximum-Head-Change  Column Row Layer    Maximum-Flux-Residual          L2-NORM 
          0                 1           2             4    7     1      -0.7518164334E-01       4    7    1        -0.3945954657E+01      0.9392652695E+01
          0                 2           2             4    7     1       0.7313008934E-02       4    7    1         0.3945877446E+00      0.9392591746E+00
          0                 3           2             4    7     1      -0.4979899205E-03       4    7    1        -0.2762122711E-01      0.6574822346E-01
          0                 4           1             4    7     1       0.1981548040E-04       4    7    1         0.1129709425E-02      0.2689105669E-02

    ------------------------------------------------
       NWT REQUIRED            4 OUTER ITERATIONS 
       AND A TOTAL OF          7 INNER ITERATIONS.
    ------------------------------------------------

 NO OUTPUT CONTROL FOR STRESS PERIOD   45   TIME STEP   14
 
 SOLVING FOR HEAD 
                                                   Max.-Head-Change                         Max.-Flux-Residual
  Residual-Control   Outer-Iter.   Inner-Iter.     Column Row Layer    Maximum-Head-Change  Column Row Layer    Maximum-Flux-Residual          L2-NORM 
          0                 1           2             4    7     1      -0.7443494349E-01       4    7    1        -0.3906276670E+01      0.9344943622E+01
          0                 2           2             4    7     1       0.7240378316E-02       4    7    1         0.3906201437E+00      0.9344883752E+00
          0                 3           2             4    7     1      -0.4930440162E-03       4    7    1        -0.2734349306E-01      0.6541426616E-01
          0                 4           1             4    7     1       0.1961867782E-04       4    7    1         0.1118350088E-02      0.2675446967E-02

    ------------------------------------------------
       NWT REQUIRED            4 OUTER ITERATIONS 
       AND A TOTAL OF          7 INNER ITERATIONS.
    ------------------------------------------------

 NO OUTPUT CONTROL FOR STRESS PERIOD   45   TIME STEP   15
 
 SOLVING FOR HEAD 
                                                   Max.-Head-Change                         Max.-Flux-Residual
  Residual-Control   Outer-Iter.   Inner-Iter.     Column Row Layer    Maximum-Head-Change  Column Row Layer    Maximum-Flux-Residual          L2-NORM 
          0                 1           2             4    7     1      -0.7370448950E-01       4    7    1        -0.3867470898E+01      0.9298085554E+01
          0                 2           2             4    7     1       0.7169327875E-02       4    7    1         0.3867397573E+00      0.9298026742E+00
          0                 3           2             4    7     1      -0.4882057171E-03       4    7    1        -0.2707186410E-01      0.6508626616E-01
          0                 4           1             4    7     1       0.1942615754E-04       4    7    1         0.1107240450E-02      0.2662032300E-02

    ------------------------------------------------
       NWT REQUIRED            4 OUTER ITERATIONS 
       AND A TOTAL OF          7 INNER ITERATIONS.
    ------------------------------------------------

 NO OUTPUT CONTROL FOR STRESS PERIOD   45   TIME STEP   16
 
 SOLVING FOR HEAD 
                                                   Max.-Head-Change                         Max.-Flux-Residual
  Residual-Control   Outer-Iter.   Inner-Iter.     Column Row Layer    Maximum-Head-Change  Column Row Layer    Maximum-Flux-Residual          L2-NORM 
          0                 1           2             4    7     1      -0.7299002996E-01       4    7    1        -0.3829523835E+01      0.9252066365E+01
          0                 2           2             4    7     1       0.7099833157E-02       4    7    1         0.3829452351E+00      0.9252008562E+00
          0                 3           2             4    7     1      -0.4834733579E-03       4    7    1        -0.2680624568E-01      0.6476413603E-01
          0                 4           1             4    7     1       0.1923785311E-04       4    7    1         0.1096376666E-02      0.2648855932E-02

    ------------------------------------------------
       NWT REQUIRED            4 OUTER ITERATIONS 
       AND A TOTAL OF          7 INNER ITERATIONS.
    ------------------------------------------------

 NO OUTPUT CONTROL FOR STRESS PERIOD   45   TIME STEP   17
 
 SOLVING FOR HEAD 
                                                   Max.-Head-Change                         Max.-Flux-Residual
  Residual-Control   Outer-Iter.   Inner-Iter.     Column Row Layer    Maximum-Head-Change  Column Row Layer    Maximum-Flux-Residual          L2-NORM 
          0                 1           2             4    7     1      -0.7229085086E-01       4    7    1        -0.3792396998E+01      0.9206855384E+01
          0                 2           2             4    7     1       0.7031824717E-02       4    7    1         0.3792327291E+00      0.9206798584E+00
          0                 3           2             4    7     1      -0.4788422096E-03       4    7    1        -0.2654636846E-01      0.6444766666E-01
          0                 4           1             4    7     1       0.1905357538E-04       4    7    1         0.1085747680E-02      0.2635913124E-02

    ------------------------------------------------
       NWT REQUIRED            4 OUTER ITERATIONS 
       AND A TOTAL OF          7 INNER ITERATIONS.
    ------------------------------------------------

 NO OUTPUT CONTROL FOR STRESS PERIOD   45   TIME STEP   18
 
 SOLVING FOR HEAD 
                                                   Max.-Head-Change                         Max.-Flux-Residual
  Residual-Control   Outer-Iter.   Inner-Iter.     Column Row Layer    Maximum-Head-Change  Column Row Layer    Maximum-Flux-Residual          L2-NORM 
          0                 1           2             4    7     1      -0.7160660702E-01       4    7    1        -0.3756071599E+01      0.9162440835E+01
          0                 2           2             4    7     1       0.6965268978E-02       4    7    1         0.3756003606E+00      0.9162385063E+00
          0                 3           2             4    7     1      -0.4743099857E-03       4    7    1        -0.2629210092E-01      0.6413677019E-01
          0                 4           1             4    7     1       0.1887323409E-04       4    7    1         0.1075348124E-02      0.2623199384E-02

    ------------------------------------------------
       NWT REQUIRED            4 OUTER ITERATIONS 
       AND A TOTAL OF          7 INNER ITERATIONS.
    ------------------------------------------------

 NO OUTPUT CONTROL FOR STRESS PERIOD   45   TIME STEP   19
 
 SOLVING FOR HEAD 
                                                   Max.-Head-Change                         Max.-Flux-Residual
  Residual-Control   Outer-Iter.   Inner-Iter.     Column Row Layer    Maximum-Head-Change  Column Row Layer    Maximum-Flux-Residual          L2-NORM 
          0                 1           2             4    7     1      -0.7093675760E-01       4    7    1        -0.3720518714E+01      0.9118789593E+01
          0                 2           2             4    7     1       0.6900113337E-02       4    7    1         0.3720452376E+00      0.9118734756E+00
          0                 3           2             4    7     1      -0.4698731044E-03       4    7    1        -0.2604324065E-01      0.6383121713E-01
          0                 4           1             4    7     1       0.1869668649E-04       4    7    1         0.1065169745E-02      0.2610700198E-02

    ------------------------------------------------
       NWT REQUIRED            4 OUTER ITERATIONS 
       AND A TOTAL OF          7 INNER ITERATIONS.
    ------------------------------------------------

 NO OUTPUT CONTROL FOR STRESS PERIOD   45   TIME STEP   20
 
 SOLVING FOR HEAD 
                                                   Max.-Head-Change                         Max.-Flux-Residual
  Residual-Control   Outer-Iter.   Inner-Iter.     Column Row Layer    Maximum-Head-Change  Column Row Layer    Maximum-Flux-Residual          L2-NORM 
          0                 1           2             4    7     1      -0.7028070423E-01       4    7    1        -0.3685705957E+01      0.9075886182E+01
          0                 2           2             4    7     1       0.6836299593E-02       4    7    1         0.3685641218E+00      0.9075832249E+00
          0                 3           2             4    7     1      -0.4655276021E-03       4    7    1        -0.2579956093E-01      0.6353089787E-01
          0                 4           1             4    7     1       0.1852377497E-04       4    7    1         0.1055203236E-02      0.2598417353E-02

    ------------------------------------------------
       NWT REQUIRED            4 OUTER ITERATIONS 
       AND A TOTAL OF          7 INNER ITERATIONS.
    ------------------------------------------------

 NO OUTPUT CONTROL FOR STRESS PERIOD   45   TIME STEP   21
 
 SOLVING FOR HEAD 
                                                   Max.-Head-Change                         Max.-Flux-Residual
  Residual-Control   Outer-Iter.   Inner-Iter.     Column Row Layer    Maximum-Head-Change  Column Row Layer    Maximum-Flux-Residual          L2-NORM 
          0                 1           2             4    7     1      -0.6963827164E-01       4    7    1        -0.3651623916E+01      0.9033723522E+01
          0                 2           2             4    7     1       0.6773810698E-02       4    7    1         0.3651560721E+00      0.9033670473E+00
          0                 3           2             4    7     1      -0.4612723176E-03       4    7    1        -0.2556099589E-01      0.6323576481E-01
          0                 4           1             4    7     1       0.1835445301E-04       4    7    1         0.1045445908E-02      0.2586346131E-02

    ------------------------------------------------
       NWT REQUIRED            4 OUTER ITERATIONS 
       AND A TOTAL OF          7 INNER ITERATIONS.
    ------------------------------------------------

 NO OUTPUT CONTROL FOR STRESS PERIOD   45   TIME STEP   22
 
 SOLVING FOR HEAD 
                                                   Max.-Head-Change                         Max.-Flux-Residual
  Residual-Control   Outer-Iter.   Inner-Iter.     Column Row Layer    Maximum-Head-Change  Column Row Layer    Maximum-Flux-Residual          L2-NORM 
          0                 1           2             4    7     1      -0.6900883582E-01       4    7    1        -0.3618239029E+01      0.8992257395E+01
          0                 2           2             4    7     1       0.6712585958E-02       4    7    1         0.3618177325E+00      0.8992205190E+00
          0                 3           2             4    7     1      -0.4571031181E-03       4    7    1        -0.2532731060E-01      0.6294550649E-01
          0                 4           1             4    7     1       0.1818855690E-04       4    7    1         0.1035888180E-02      0.2574474913E-02

    ------------------------------------------------
       NWT REQUIRED            4 OUTER ITERATIONS 
       AND A TOTAL OF          7 INNER ITERATIONS.
    ------------------------------------------------

 NO OUTPUT CONTROL FOR STRESS PERIOD   45   TIME STEP   23
 
 SOLVING FOR HEAD 
                                                   Max.-Head-Change                         Max.-Flux-Residual
  Residual-Control   Outer-Iter.   Inner-Iter.     Column Row Layer    Maximum-Head-Change  Column Row Layer    Maximum-Flux-Residual          L2-NORM 
          0                 1           2             4    7     1      -0.6839212141E-01       4    7    1        -0.3585536206E+01      0.8951495152E+01
          0                 2           2             4    7     1       0.6652598591E-02       4    7    1         0.3585475944E+00      0.8951443784E+00
          0                 3           2             4    7     1      -0.4530181800E-03       4    7    1        -0.2509839946E-01      0.6266017489E-01
          0                 4           1             4    7     1       0.1802601365E-04       4    7    1         0.1026525704E-02      0.2562804145E-02

    ------------------------------------------------
       NWT REQUIRED            4 OUTER ITERATIONS 
       AND A TOTAL OF          7 INNER ITERATIONS.
    ------------------------------------------------

 NO OUTPUT CONTROL FOR STRESS PERIOD   45   TIME STEP   24
 
 SOLVING FOR HEAD 
                                                   Max.-Head-Change                         Max.-Flux-Residual
  Residual-Control   Outer-Iter.   Inner-Iter.     Column Row Layer    Maximum-Head-Change  Column Row Layer    Maximum-Flux-Residual          L2-NORM 
          0                 1           2             4    7     1      -0.6778770841E-01       4    7    1        -0.3553493013E+01      0.8911408898E+01
          0                 2           2             4    7     1       0.6593807746E-02       4    7    1         0.3553434144E+00      0.8911358333E+00
          0                 3           2             4    7     1      -0.4490147213E-03       4    7    1        -0.2487410546E-01      0.6237957718E-01
          0                 4           1             4    7     1       0.1786671251E-04       4    7    1         0.1017352070E-02      0.2551329732E-02

    ------------------------------------------------
       NWT REQUIRED            4 OUTER ITERATIONS 
       AND A TOTAL OF          7 INNER ITERATIONS.
    ------------------------------------------------

 NO OUTPUT CONTROL FOR STRESS PERIOD   45   TIME STEP   25
 
 SOLVING FOR HEAD 
                                                   Max.-Head-Change                         Max.-Flux-Residual
  Residual-Control   Outer-Iter.   Inner-Iter.     Column Row Layer    Maximum-Head-Change  Column Row Layer    Maximum-Flux-Residual          L2-NORM 
          0                 1           2             4    7     1      -0.6719508256E-01       4    7    1        -0.3522081428E+01      0.8871985494E+01
          0                 2           2             4    7     1       0.6536163401E-02       4    7    1         0.3522023906E+00      0.8871935365E+00
          0                 3           2             4    7     1      -0.4450893356E-03       4    7    1        -0.2465423242E-01      0.6210361433E-01
          0                 4           1             4    7     1       0.1771051775E-04       4    7    1         0.1008359257E-02      0.2540040720E-02

    ------------------------------------------------
       NWT REQUIRED            4 OUTER ITERATIONS 
       AND A TOTAL OF          7 INNER ITERATIONS.
    ------------------------------------------------

 NO OUTPUT CONTROL FOR STRESS PERIOD   45   TIME STEP   26
 
 SOLVING FOR HEAD 
                                                   Max.-Head-Change                         Max.-Flux-Residual
  Residual-Control   Outer-Iter.   Inner-Iter.     Column Row Layer    Maximum-Head-Change  Column Row Layer    Maximum-Flux-Residual          L2-NORM 
          0                 1           2             4    7     1      -0.6661409330E-01       4    7    1        -0.3491293520E+01      0.8833201353E+01
          0                 2           2             4    7     1       0.6479650915E-02       4    7    1         0.3491237302E+00      0.8833151933E+00
          0                 3           2             4    7     1      -0.4412410264E-03       4    7    1        -0.2443872489E-01      0.6183212868E-01
          0                 4           1             4    7     1       0.1755738986E-04       4    7    1         0.9995449977E-03      0.2528941765E-02

    ------------------------------------------------
       NWT REQUIRED            4 OUTER ITERATIONS 
       AND A TOTAL OF          7 INNER ITERATIONS.
    ------------------------------------------------

 NO OUTPUT CONTROL FOR STRESS PERIOD   45   TIME STEP   27
 
 SOLVING FOR HEAD 
                                                   Max.-Head-Change                         Max.-Flux-Residual
  Residual-Control   Outer-Iter.   Inner-Iter.     Column Row Layer    Maximum-Head-Change  Column Row Layer    Maximum-Flux-Residual          L2-NORM 
          0                 1           2             4    7     1      -0.6604426729E-01       4    7    1        -0.3461103702E+01      0.8795053490E+01
          0                 2           2             4    7     1       0.6424224246E-02       4    7    1         0.3461048745E+00      0.8795004825E+00
          0                 3           2             4    7     1      -0.4374666570E-03       4    7    1        -0.2422740367E-01      0.6156509783E-01
          0                 4           1             4    7     1       0.1740720441E-04       4    7    1         0.9909019504E-03      0.2518015904E-02

    ------------------------------------------------
       NWT REQUIRED            4 OUTER ITERATIONS 
       AND A TOTAL OF          7 INNER ITERATIONS.
    ------------------------------------------------

 NO OUTPUT CONTROL FOR STRESS PERIOD   45   TIME STEP   28
 
 SOLVING FOR HEAD 
                                                   Max.-Head-Change                         Max.-Flux-Residual
  Residual-Control   Outer-Iter.   Inner-Iter.     Column Row Layer    Maximum-Head-Change  Column Row Layer    Maximum-Flux-Residual          L2-NORM 
          0                 1           2             4    7     1      -0.6548534501E-01       4    7    1        -0.3431498011E+01      0.8757517991E+01
          0                 2           2             4    7     1       0.6369858152E-02       4    7    1         0.3431444274E+00      0.8757470053E+00
          0                 3           2             4    7     1      -0.4337645100E-03       4    7    1        -0.2402017114E-01      0.6130237474E-01
          0                 4           1             4    7     1       0.1725989255E-04       4    7    1         0.9824261333E-03      0.2507272912E-02

    ------------------------------------------------
       NWT REQUIRED            4 OUTER ITERATIONS 
       AND A TOTAL OF          7 INNER ITERATIONS.
    ------------------------------------------------

 NO OUTPUT CONTROL FOR STRESS PERIOD   45   TIME STEP   29
 
 SOLVING FOR HEAD 
                                                   Max.-Head-Change                         Max.-Flux-Residual
  Residual-Control   Outer-Iter.   Inner-Iter.     Column Row Layer    Maximum-Head-Change  Column Row Layer    Maximum-Flux-Residual          L2-NORM 
          0                 1           2             4    7     1      -0.6493688786E-01       4    7    1        -0.3402452411E+01      0.8720590990E+01
          0                 2           2             4    7     1       0.6316509975E-02       4    7    1         0.3402399856E+00      0.8720543794E+00
          0                 3           2             4    7     1      -0.4301316797E-03       4    7    1        -0.2381685899E-01      0.6104386720E-01
          0                 4           1             4    7     1       0.1711533891E-04       4    7    1         0.9741106596E-03      0.2496696897E-02

    ------------------------------------------------
       NWT REQUIRED            4 OUTER ITERATIONS 
       AND A TOTAL OF          7 INNER ITERATIONS.
    ------------------------------------------------

 NO OUTPUT CONTROL FOR STRESS PERIOD   45   TIME STEP   30



 STREAM LISTING     PERIOD     45   STEP       30

 LAYER ROW COL. STREAM  RCH.  FLOW INTO     FLOW TO   FLOW OUT OF   OVRLND.     DIRECT     STREAM       STREAM     STREAM     STREAM   STREAMBED  STREAMBED
                SEG.NO.  NO.  STRM. RCH.    AQUIFER    STRM. RCH.    RUNOFF     PRECIP       ET          HEAD       DEPTH      WIDTH   CONDCTNC.   GRADIENT

   1    1    1     1     1    1.9000E+01  2.1427E-01   1.8786E+01  0.000E+00  0.000E+00  0.000E+00  1.09413E+03  1.082E+00  1.166E+01  5.249E-02  1.361E+00
   1    2    2     1     2    1.8786E+01  3.3054E-01   1.8455E+01  0.000E+00  0.000E+00  0.000E+00  1.08914E+03  1.077E+00  1.158E+01  8.107E-02  1.359E+00
   1    3    3     1     3    1.8455E+01  2.8064E-01   1.8175E+01  0.000E+00  0.000E+00  0.000E+00  1.08349E+03  1.072E+00  1.149E+01  6.892E-02  1.357E+00
   1    3    4     1     4    1.8175E+01  2.5740E-01   1.7917E+01  0.000E+00  0.000E+00  0.000E+00  1.07848E+03  1.068E+00  1.140E+01  6.328E-02  1.356E+00
   1    4    5     2     1    1.5917E+01  3.0542E-01   1.5612E+01  0.000E+00  0.000E+00  0.000E+00  1.07285E+03  9.157E-01  1.200E+01  7.800E-02  1.305E+00
   1    5    6     2     2    1.5612E+01  2.3438E-01   1.5377E+01  0.000E+00  0.000E+00  0.000E+00  1.06742E+03  9.063E-01  1.200E+01  6.000E-02  1.302E+00
   1    6    6     2     3    1.5377E+01  2.3388E-01   1.5143E+01  0.000E+00  0.000E+00  0.000E+00  1.06269E+03  8.980E-01  1.200E+01  6.000E-02  1.299E+00
   1    7    6     2     4    1.5143E+01  2.3338E-01   1.4910E+01  0.000E+00  0.000E+00  0.000E+00  1.05797E+03  8.897E-01  1.200E+01  6.000E-02  1.297E+00
   1    8    6     2     5    1.4910E+01  2.3289E-01   1.4677E+01  0.000E+00  0.000E+00  0.000E+00  1.05324E+03  8.814E-01  1.200E+01  6.000E-02  1.294E+00
   1    3    5     3     1    2.0000E+00  2.8252E-01   1.7175E+00  0.000E+00  0.000E+00  0.000E+00  1.07555E+03  1.909E+00  9.636E+00  7.227E-02  1.955E+00
   1    3    6     3     2    1.7175E+00  2.4905E-01   1.4684E+00  0.000E+00  0.000E+00  0.000E+00  1.07264E+03  1.727E+00  8.909E+00  6.682E-02  1.864E+00
   1    3    7     3     3    1.4684E+00  1.9718E-01   1.2712E+00  0.000E+00  0.000E+00  0.000E+00  1.06987E+03  1.555E+00  8.218E+00  5.547E-02  1.777E+00
   1    4    8     3     4    1.2712E+00  2.2567E-01   1.0456E+00  0.000E+00  0.000E+00  0.000E+00  1.06682E+03  1.364E+00  7.455E+00  6.709E-02  1.682E+00
   1    5    8     3     5    1.0456E+00  1.5790E-01   8.8768E-01  0.000E+00  0.000E+00  0.000E+00  1.06362E+03  1.164E+00  6.655E+00  4.991E-02  1.582E+00
   1    6    8     3     6    8.8768E-01  5.5980E-02   8.3170E-01  0.000E+00  0.000E+00  0.000E+00  1.06158E+03  1.036E+00  6.145E+00  1.844E-02  1.518E+00
   1    5   10     4     1    1.0000E+01  9.0919E-02   9.9091E+00  0.000E+00  0.000E+00  0.000E+00  1.07836E+03  6.368E-01  1.000E+01  2.500E-02  1.212E+00
   1    5    9     4     2    9.9091E+00  1.8158E-01   9.7275E+00  0.000E+00  0.000E+00  0.000E+00  1.07154E+03  6.315E-01  1.000E+01  5.000E-02  1.211E+00
   1    6    8     4     3    9.7275E+00  1.2689E-01   9.6006E+00  0.000E+00  0.000E+00  0.000E+00  1.06381E+03  6.256E-01  1.000E+01  3.500E-02  1.209E+00
   1    6    8     5     1    1.0432E+01  2.2686E-01   1.0205E+01  0.000E+00  0.000E+00  0.000E+00  1.05868E+03  6.790E-01  1.542E+01  6.166E-02  1.226E+00
   1    7    7     5     2    1.0205E+01  2.7894E-01   9.9265E+00  0.000E+00  0.000E+00  0.000E+00  1.05417E+03  6.732E-01  1.519E+01  7.594E-02  1.224E+00
   1    8    7     5     3    9.9265E+00  1.9221E-01   9.7343E+00  0.000E+00  0.000E+00  0.000E+00  1.04992E+03  6.676E-01  1.497E+01  5.241E-02  1.223E+00
   1    8    6     5     4    9.7343E+00  1.3577E-01   9.5985E+00  0.000E+00  0.000E+00  0.000E+00  1.04691E+03  6.637E-01  1.482E+01  3.706E-02  1.221E+00
   1    9    6     6     1    2.4276E+01  2.5176E-01   2.4024E+01  0.000E+00  0.000E+00  0.000E+00  1.04392E+03  1.196E+00  1.200E+01  6.000E-02  1.399E+00
   1   10    7     6     2    2.4024E+01  2.5131E-01   2.3773E+01  0.000E+00  0.000E+00  0.000E+00  1.03937E+03  1.188E+00  1.200E+01  6.000E-02  1.396E+00
   1   11    7     6     3    2.3773E+01  2.5086E-01   2.3522E+01  0.000E+00  0.000E+00  0.000E+00  1.03482E+03  1.181E+00  1.200E+01  6.000E-02  1.394E+00
   1   12    7     6     4    2.3522E+01  2.5041E-01   2.3271E+01  0.000E+00  0.000E+00  0.000E+00  1.03026E+03  1.173E+00  1.200E+01  6.000E-02  1.391E+00
   1   13    7     6     5    2.3271E+01  1.1469E-02   2.3260E+01  0.000E+00  0.000E+00  0.000E+00  1.02708E+03  1.169E+00  1.200E+01  2.400E-02  1.593E-01
   1   14    9     7     1    1.5000E+02  1.3751E+00   1.4862E+02  0.000E+00  0.000E+00  0.000E+00  1.03987E+03  2.288E+00  5.529E+01  5.593E-01  8.195E-01
   1   13    8     7     2    1.4862E+02  1.9809E+00   1.4664E+02  0.000E+00  0.000E+00  0.000E+00  1.03478E+03  2.279E+00  5.525E+01  6.147E-01  1.074E+00
   1   13    7     7     3    1.4664E+02  1.7239E+00   1.4492E+02  0.000E+00  0.000E+00  0.000E+00  1.02969E+03  2.269E+00  5.521E+01  5.584E-01  1.029E+00
   1   13    6     8     1    1.6818E+02  1.1539E+00   1.6703E+02  0.000E+00  0.000E+00  0.000E+00  1.02481E+03  2.937E+00  4.258E+01  4.339E-01  8.864E-01
   1   13    5     8     2    1.6703E+02  3.8671E-01   1.6664E+02  0.000E+00  0.000E+00  0.000E+00  1.01856E+03  2.931E+00  4.251E+01  4.332E-01  2.976E-01
   1   13    4     8     3    1.6664E+02 -1.7374E+00   1.6838E+02  0.000E+00  0.000E+00  0.000E+00  1.01231E+03  2.936E+00  4.257E+01  4.338E+00 -1.335E-01
   1   13    3     8     4    1.6838E+02 -3.3028E+00   1.7168E+02  0.000E+00  0.000E+00  0.000E+00  1.00608E+03  2.952E+00  4.281E+01  4.362E+00 -2.524E-01
   1   13    2     8     5    1.7168E+02 -2.4880E+00   1.7417E+02  0.000E+00  0.000E+00  0.000E+00  9.99846E+02  2.971E+00  4.308E+01  4.390E+00 -1.889E-01
   1   13    1     8     6    1.7417E+02 -1.9584E+00   1.7613E+02  0.000E+00  0.000E+00  0.000E+00  9.94860E+02  2.985E+00  4.329E+01  2.647E+00 -2.466E-01





UNSATURATED ZONE PACKAGE VOLUMETRIC BUDGET FOR  TIME STEP    30 STRESS PERIOD   45
  ------------------------------------------------------------------------------



     CUMULATIVE VOLUMES      L**3       RATES FOR THIS TIME STEP      L**3/T
     ------------------                 ------------------------

           IN:                                      IN:
           ---                                      ---
        INFILTRATION =  2074178550.1833          INFILTRATION =          52.8142

          OUT:                                     OUT:
          ----                                     ----
              UZF ET =  1946972058.4708                UZF ET =          52.8575
        UZF RECHARGE =     1375952.6552          UZF RECHARGE =           0.0011

            IN - OUT =   125830539.0573              IN - OUT =      -4.4434E-02

          STORAGE:                                 STORAGE:
          --------                                 --------
      STORAGE CHANGE =   125832161.6046        STORAGE CHANGE =      -4.4435E-02

 PERCENT DISCREPANCY IS DIFFERENCE BETWEEN IN-OUT MINUS CHANGE IN STORAGE
 DIVIDED BY THE AVERAGE OF IN AND OUT TIMES 100

 PERCENT DISCREPANCY =          -0.00     PERCENT DISCREPANCY =           0.00






1
  VOLUMETRIC BUDGET FOR ENTIRE MODEL AT END OF TIME STEP   30, STRESS PERIOD  45
  ------------------------------------------------------------------------------

     CUMULATIVE VOLUMES      L**3       RATES FOR THIS TIME STEP      L**3/T
     ------------------                 ------------------------

           IN:                                      IN:
           ---                                      ---
               AG WELLS  =  1564069888.0000                 AG WELLS  =          48.4067
      DIVERSION SEGMENTS =           0.0000        DIVERSION SEGMENTS =           0.0000
           GW IRRIGATION =           0.0000             GW IRRIGATION =           0.0000
           SW IRRIGATION =           0.0000             SW IRRIGATION =           0.0000
        SYSTEM LOSSES GW =           0.0000          SYSTEM LOSSES GW =           0.0000
        SYSTEM LOSSES SW =           0.0000          SYSTEM LOSSES SW =           0.0000

                TOTAL IN =  1564069888.0000                  TOTAL IN =          48.4067

          OUT:                                     OUT:
          ----                                     ----
               AG WELLS  =           0.0000                 AG WELLS  =           0.0000
      DIVERSION SEGMENTS =           0.0000        DIVERSION SEGMENTS =           0.0000
           GW IRRIGATION =  1564069888.0000             GW IRRIGATION =          48.4067
           SW IRRIGATION =           0.0000             SW IRRIGATION =           0.0000
        SYSTEM LOSSES GW =           0.0000          SYSTEM LOSSES GW =           0.0000
        SYSTEM LOSSES SW =           0.0000          SYSTEM LOSSES SW =           0.0000

               TOTAL OUT =  1564069888.0000                 TOTAL OUT =          48.4067

                IN - OUT =           0.0000                  IN - OUT =           0.0000

     PERCENT DISCREPANCY =           0.00         PERCENT DISCREPANCY =           0.00



1
  VOLUMETRIC BUDGET FOR ENTIRE MODEL AT END OF TIME STEP   30, STRESS PERIOD  45
  ------------------------------------------------------------------------------

     CUMULATIVE VOLUMES      L**3       RATES FOR THIS TIME STEP      L**3/T
     ------------------                 ------------------------

           IN:                                      IN:
           ---                                      ---
             STORAGE     =  2029621376.0000               STORAGE     =          45.5480
       CONSTANT HEAD     =           0.0000         CONSTANT HEAD     =           0.0000
     HEAD DEP BOUNDS     =    33144574.0000       HEAD DEP BOUNDS     =           0.2884
      STREAM LEAKAGE     =  1418257920.0000        STREAM LEAKAGE     =          12.3605
        UZF RECHARGE     =     1375952.8750          UZF RECHARGE     =       1.1283E-03
               GW ET     =           0.0000                 GW ET     =           0.0000
     SURFACE LEAKAGE     =           0.0000       SURFACE LEAKAGE     =           0.0000
           AG WELLS      =           0.0000             AG WELLS      =           0.0000

                TOTAL IN =  3482400000.0000                  TOTAL IN =          58.1981

          OUT:                                     OUT:
          ----                                     ----
             STORAGE     =   692369472.0000               STORAGE     =       1.6072E-02
       CONSTANT HEAD     =           0.0000         CONSTANT HEAD     =           0.0000
     HEAD DEP BOUNDS     =    33792256.0000       HEAD DEP BOUNDS     =           0.2888
      STREAM LEAKAGE     =  1174852736.0000        STREAM LEAKAGE     =           9.4866
        UZF RECHARGE     =           0.0000          UZF RECHARGE     =           0.0000
               GW ET     =    17319432.0000                 GW ET     =           0.0000
     SURFACE LEAKAGE     =           0.0000       SURFACE LEAKAGE     =           0.0000
           AG WELLS      =  1564069888.0000             AG WELLS      =          48.4067

               TOTAL OUT =  3482403840.0000                 TOTAL OUT =          58.1982

                IN - OUT =       -3840.0000                  IN - OUT =      -1.6022E-04

     PERCENT DISCREPANCY =          -0.00         PERCENT DISCREPANCY =          -0.00






         TIME SUMMARY AT END OF TIME STEP   30 IN STRESS PERIOD   45
                    SECONDS     MINUTES      HOURS       DAYS        YEARS
                    -----------------------------------------------------------
   TIME STEP LENGTH  87667.      1461.1      24.352      1.0147     2.77799E-03
 STRESS PERIOD TIME 2.63000E+06  43833.      730.56      30.440     8.33397E-02
         TOTAL TIME 1.15805E+08 1.93009E+06  32168.      1340.3      3.6696    
1
1
                            STRESS PERIOD NO.   46, LENGTH =   2630000.    
                            -----------------------------------------------

                              NUMBER OF TIME STEPS =    30

                               MULTIPLIER FOR DELT =     1.000

                            INITIAL TIME STEP SIZE =   87666.66    

 REUSING NON-PARAMETER GHB CELLS FROM LAST STRESS PERIOD

      2 GHB CELLS

 REUSING STREAM SEGMENT DATA FROM LAST STRESS PERIOD



            AREAL INFILTRATION RATE
 READING ON UNIT   19 WITH FORMAT: (10F4.0)            

            1           2           3           4           5           6           7           8           9          10
 ........................................................................................................................
   1   1.2000E-09   0.000       0.000       0.000       0.000       0.000       0.000       0.000       0.000       0.000    
   2   2.1000E-09  2.0000E-09  8.0000E-10  8.5000E-09   0.000       0.000       0.000       0.000       0.000       0.000    
   3   5.0000E-10  1.1000E-09  8.8000E-09  5.5000E-09   0.000       0.000       0.000       0.000       0.000       0.000    
   4   8.5000E-09  1.1000E-09  1.1000E-09  1.1000E-09  2.0000E-09   0.000       0.000       0.000       0.000       0.000    
   5   8.5000E-09  1.1000E-09  1.1000E-09  1.1000E-09  1.1000E-09   0.000       0.000       0.000       0.000       0.000    
   6   8.5000E-09  5.2000E-09  2.1000E-09  1.1000E-09  1.5000E-09   0.000       0.000       0.000       0.000       0.000    
   7   8.5000E-09  5.2000E-09  2.1000E-09  1.2000E-09  2.0000E-09   0.000       0.000       0.000       0.000       0.000    
   8   5.0000E-10  5.2000E-09  2.1000E-09  1.2000E-09  5.0000E-09   0.000       0.000       0.000       0.000       0.000    
   9   5.0000E-10  5.2000E-09  2.1000E-09  1.2000E-09  5.0000E-09   0.000       0.000       0.000       0.000       0.000    
  10   5.0000E-10  5.2000E-09  2.1000E-09  1.2000E-09  5.8000E-09   0.000       0.000       0.000       0.000       0.000    
  11   1.0000E-10  1.1000E-09  1.1000E-09  1.2000E-09  5.0000E-09   0.000       0.000       0.000       0.000       0.000    
  12   1.1000E-09  1.1000E-09  1.1000E-09  1.1000E-09  2.0000E-09   0.000       0.000       0.000       0.000       0.000    
  13   1.1000E-09  2.2000E-09  2.2000E-09  2.1000E-09  1.0000E-09   0.000       0.000       0.000       0.000       0.000    
  14   2.0000E-10  5.5000E-09  5.5000E-09  5.2000E-09  1.0000E-09   0.000       0.000       0.000       0.000       0.000    
  15    0.000      8.8000E-09  8.8000E-09   0.000       0.000       0.000       0.000       0.000       0.000       0.000    

                  ET RATE =  7.500000E-08

 USING ET EXTINCTION DEPTH FROM PREVIOUS STRESS PERIOD. CURRENT PERIOD IS:      46

 USING EXTINCTION WATER CONTENT FROM PREVIOUS STRESS PERIOD. CURRENT PERIOD IS:      46

 USING AIR ENTRY PRESSURE FROM PREVIOUS STRESS PERIOD. CURRENT PERIOD IS:      46

 USING ROOT PRESSURE HEAD FROM PREVIOUS STRESS PERIOD. CURRENT PERIOD IS:      46

 USING ROOT ACTIVITY FROM PREVIOUS STRESS PERIOD. CURRENT PERIOD IS:      46

 PROCESSING AG STRESS PERIOD DATA

 READING AG STRESS PERIOD DATA

 READING IRRIGATION WELL

 END PROCESSING AG STRESS PERIOD DATA OPTIONS
 
 SOLVING FOR HEAD 
                                                   Max.-Head-Change                         Max.-Flux-Residual
  Residual-Control   Outer-Iter.   Inner-Iter.     Column Row Layer    Maximum-Head-Change  Column Row Layer    Maximum-Flux-Residual          L2-NORM 
          0                 1           2             5    8     1       0.7118135494E-01       5    8    1         0.3872183868E+01      0.1006290628E+02
          0                 2           2             5    8     1      -0.6923898406E-02       5    8    1        -0.3872110212E+00      0.1006268271E+01
          0                 3           2             5    8     1       0.4714928535E-03       5    8    1         0.2710485289E-01      0.7043901291E-01
          0                 4           1             5    8     1      -0.1876113746E-04       5    8    1        -0.1108589704E-02      0.2880959105E-02

    ------------------------------------------------
       NWT REQUIRED            4 OUTER ITERATIONS 
       AND A TOTAL OF          7 INNER ITERATIONS.
    ------------------------------------------------

 NO OUTPUT CONTROL FOR STRESS PERIOD   46   TIME STEP    1
 
 SOLVING FOR HEAD 
                                                   Max.-Head-Change                         Max.-Flux-Residual
  Residual-Control   Outer-Iter.   Inner-Iter.     Column Row Layer    Maximum-Head-Change  Column Row Layer    Maximum-Flux-Residual          L2-NORM 
          0                 1           2             5    8     1       0.6803815828E-01       5    8    1         0.3698143286E+01      0.9743155462E+01
          0                 2           2             5    8     1      -0.6618158224E-02       5    8    1        -0.3698074580E+00      0.9742953639E+00
          0                 3           2             5    8     1       0.4506730105E-03       5    8    1         0.2588659825E-01      0.6820088631E-01
          0                 4           1             5    8     1      -0.1793269663E-04       5    8    1        -0.1058763030E-02      0.2789419426E-02

    ------------------------------------------------
       NWT REQUIRED            4 OUTER ITERATIONS 
       AND A TOTAL OF          7 INNER ITERATIONS.
    ------------------------------------------------

 NO OUTPUT CONTROL FOR STRESS PERIOD   46   TIME STEP    2
 
 SOLVING FOR HEAD 
                                                   Max.-Head-Change                         Max.-Flux-Residual
  Residual-Control   Outer-Iter.   Inner-Iter.     Column Row Layer    Maximum-Head-Change  Column Row Layer    Maximum-Flux-Residual          L2-NORM 
          0                 1           2             5    8     1       0.6508765342E-01       5    8    1         0.3534892750E+01      0.9440787883E+01
          0                 2           2             5    8     1      -0.6331161161E-02       5    8    1        -0.3534828620E+00      0.9440605666E+00
          0                 3           2             5    8     1       0.4311295102E-03       5    8    1         0.2474387171E-01      0.6608443147E-01
          0                 4           1             5    8     1      -0.1715504273E-04       5    8    1        -0.1012025484E-02      0.2702856533E-02

    ------------------------------------------------
       NWT REQUIRED            4 OUTER ITERATIONS 
       AND A TOTAL OF          7 INNER ITERATIONS.
    ------------------------------------------------

 NO OUTPUT CONTROL FOR STRESS PERIOD   46   TIME STEP    3
 
 SOLVING FOR HEAD 
                                                   Max.-Head-Change                         Max.-Flux-Residual
  Residual-Control   Outer-Iter.   Inner-Iter.     Column Row Layer    Maximum-Head-Change  Column Row Layer    Maximum-Flux-Residual          L2-NORM 
          0                 1           2             5    8     1       0.6231605048E-01       5    8    1         0.3381653541E+01      0.9154531006E+01
          0                 2           2             5    8     1      -0.6061565886E-02       5    8    1        -0.3381593648E+00      0.9154366469E+00
          0                 3           2             5    8     1       0.4127710117E-03       5    8    1         0.2367122243E-01      0.6408073862E-01
          0                 4           1             5    8     1      -0.1642454153E-04       5    8    1        -0.9681540946E-03      0.2620904123E-02

    ------------------------------------------------
       NWT REQUIRED            4 OUTER ITERATIONS 
       AND A TOTAL OF          7 INNER ITERATIONS.
    ------------------------------------------------

 NO OUTPUT CONTROL FOR STRESS PERIOD   46   TIME STEP    4
 
 SOLVING FOR HEAD 
                                                   Max.-Head-Change                         Max.-Flux-Residual
  Residual-Control   Outer-Iter.   Inner-Iter.     Column Row Layer    Maximum-Head-Change  Column Row Layer    Maximum-Flux-Residual          L2-NORM 
          0                 1           2             5    8     1       0.5971028506E-01       5    8    1         0.3237689221E+01      0.8883224431E+01
          0                 2           2             5    8     1      -0.5808101627E-02       5    8    1        -0.3237633250E+00      0.8883075830E+00
          0                 3           2             5    8     1       0.3955109800E-03       5    8    1         0.2266349550E-01      0.6218168694E-01
          0                 4           1             5    8     1      -0.1573774886E-04       5    8    1        -0.9269380228E-03      0.2543234585E-02

    ------------------------------------------------
       NWT REQUIRED            4 OUTER ITERATIONS 
       AND A TOTAL OF          7 INNER ITERATIONS.
    ------------------------------------------------

 NO OUTPUT CONTROL FOR STRESS PERIOD   46   TIME STEP    5
 
 SOLVING FOR HEAD 
                                                   Max.-Head-Change                         Max.-Flux-Residual
  Residual-Control   Outer-Iter.   Inner-Iter.     Column Row Layer    Maximum-Head-Change  Column Row Layer    Maximum-Flux-Residual          L2-NORM 
          0                 1           2             5    7     1       0.5755271950E-01       5    8    1         0.3102338753E+01      0.8625818292E+01
          0                 2           2             5    7     1      -0.5598267214E-02       5    8    1        -0.3102286416E+00      0.8625684073E+00
          0                 3           2             5    7     1       0.3812216637E-03       5    8    1         0.2171606384E-01      0.6037993150E-01
          0                 4           1             5    7     1      -0.1516916680E-04       5    8    1        -0.8881880158E-03      0.2469542661E-02

    ------------------------------------------------
       NWT REQUIRED            4 OUTER ITERATIONS 
       AND A TOTAL OF          7 INNER ITERATIONS.
    ------------------------------------------------

 NO OUTPUT CONTROL FOR STRESS PERIOD   46   TIME STEP    6
 
 SOLVING FOR HEAD 
                                                   Max.-Head-Change                         Max.-Flux-Residual
  Residual-Control   Outer-Iter.   Inner-Iter.     Column Row Layer    Maximum-Head-Change  Column Row Layer    Maximum-Flux-Residual          L2-NORM 
          0                 1           2             5    7     1       0.5628478646E-01       5    7    1         0.2990585278E+01      0.8381331835E+01
          0                 2           2             5    7     1      -0.5474938194E-02       5    7    1        -0.2990560953E+00      0.8381210565E+00
          0                 3           2             5    7     1       0.3728233532E-03       5    7    1         0.2093395873E-01      0.5866860067E-01
          0                 4           1             5    7     1      -0.1483499052E-04       5    7    1        -0.8562000014E-03      0.2399555954E-02

    ------------------------------------------------
       NWT REQUIRED            4 OUTER ITERATIONS 
       AND A TOTAL OF          7 INNER ITERATIONS.
    ------------------------------------------------

 NO OUTPUT CONTROL FOR STRESS PERIOD   46   TIME STEP    7
 
 SOLVING FOR HEAD 
                                                   Max.-Head-Change                         Max.-Flux-Residual
  Residual-Control   Outer-Iter.   Inner-Iter.     Column Row Layer    Maximum-Head-Change  Column Row Layer    Maximum-Flux-Residual          L2-NORM 
          0                 1           2             5    7     1       0.5504160536E-01       5    7    1         0.2924716918E+01      0.8148871041E+01
          0                 2           2             5    7     1      -0.5354016067E-02       5    7    1        -0.2924696306E+00      0.8148761461E+00
          0                 3           2             5    7     1       0.3645889513E-03       5    7    1         0.2047290250E-01      0.5704144461E-01
          0                 4           1             5    7     1      -0.1450733657E-04       5    7    1        -0.8373428057E-03      0.2332999210E-02

    ------------------------------------------------
       NWT REQUIRED            4 OUTER ITERATIONS 
       AND A TOTAL OF          7 INNER ITERATIONS.
    ------------------------------------------------

 NO OUTPUT CONTROL FOR STRESS PERIOD   46   TIME STEP    8
 
 SOLVING FOR HEAD 
                                                   Max.-Head-Change                         Max.-Flux-Residual
  Residual-Control   Outer-Iter.   Inner-Iter.     Column Row Layer    Maximum-Head-Change  Column Row Layer    Maximum-Flux-Residual          L2-NORM 
          0                 1           2             5    7     1       0.5382392988E-01       5    7    1         0.2860137872E+01      0.7927620680E+01
          0                 2           2             5    7     1      -0.5235574249E-02       5    7    1        -0.2860120500E+00      0.7927521605E+00
          0                 3           2             5    7     1       0.3565234553E-03       5    7    1         0.2002086858E-01      0.5549275486E-01
          0                 4           1             5    7     1      -0.1418640284E-04       5    7    1        -0.8188545912E-03      0.2269656643E-02

    ------------------------------------------------
       NWT REQUIRED            4 OUTER ITERATIONS 
       AND A TOTAL OF          7 INNER ITERATIONS.
    ------------------------------------------------

 NO OUTPUT CONTROL FOR STRESS PERIOD   46   TIME STEP    9
 
 SOLVING FOR HEAD 
                                                   Max.-Head-Change                         Max.-Flux-Residual
  Residual-Control   Outer-Iter.   Inner-Iter.     Column Row Layer    Maximum-Head-Change  Column Row Layer    Maximum-Flux-Residual          L2-NORM 
          0                 1           2             4    7     1       0.5293100306E-01       5    7    1         0.2796879475E+01      0.7716820365E+01
          0                 2           2             4    7     1      -0.5148735457E-02       5    7    1        -0.2796864932E+00      0.7716730787E+00
          0                 3           2             4    7     1       0.3506098731E-03       5    7    1         0.1957807675E-01      0.5401720713E-01
          0                 4           1             4    7     1      -0.1395109446E-04       5    7    1        -0.8007443919E-03      0.2209307459E-02

    ------------------------------------------------
       NWT REQUIRED            4 OUTER ITERATIONS 
       AND A TOTAL OF          7 INNER ITERATIONS.
    ------------------------------------------------

 NO OUTPUT CONTROL FOR STRESS PERIOD   46   TIME STEP   10
 
 SOLVING FOR HEAD 
                                                   Max.-Head-Change                         Max.-Flux-Residual
  Residual-Control   Outer-Iter.   Inner-Iter.     Column Row Layer    Maximum-Head-Change  Column Row Layer    Maximum-Flux-Residual          L2-NORM 
          0                 1           2             4    7     1       0.5248287148E-01       4    7    1         0.2749964570E+01      0.7515778775E+01
          0                 2           2             4    7     1      -0.5105148672E-02       4    7    1        -0.2749962979E+00      0.7515697759E+00
          0                 3           2             4    7     1       0.3476417339E-03       4    7    1         0.1924975068E-01      0.5260996774E-01
          0                 4           1             4    7     1      -0.1383298966E-04       4    7    1        -0.7873159009E-03      0.2151749927E-02

    ------------------------------------------------
       NWT REQUIRED            4 OUTER ITERATIONS 
       AND A TOTAL OF          7 INNER ITERATIONS.
    ------------------------------------------------

 NO OUTPUT CONTROL FOR STRESS PERIOD   46   TIME STEP   11
 
 SOLVING FOR HEAD 
                                                   Max.-Head-Change                         Max.-Flux-Residual
  Residual-Control   Outer-Iter.   Inner-Iter.     Column Row Layer    Maximum-Head-Change  Column Row Layer    Maximum-Flux-Residual          L2-NORM 
          0                 1           2             4    7     1       0.5200971880E-01       4    7    1         0.2726692317E+01      0.7323863008E+01
          0                 2           2             4    7     1      -0.5059127548E-02       4    7    1        -0.2726693193E+00      0.7323789670E+00
          0                 3           2             4    7     1       0.3445078296E-03       4    7    1         0.1908685978E-01      0.5126660207E-01
          0                 4           1             4    7     1      -0.1370828874E-04       4    7    1        -0.7806536610E-03      0.2096807041E-02

    ------------------------------------------------
       NWT REQUIRED            4 OUTER ITERATIONS 
       AND A TOTAL OF          7 INNER ITERATIONS.
    ------------------------------------------------

 NO OUTPUT CONTROL FOR STRESS PERIOD   46   TIME STEP   12
 
 SOLVING FOR HEAD 
                                                   Max.-Head-Change                         Max.-Flux-Residual
  Residual-Control   Outer-Iter.   Inner-Iter.     Column Row Layer    Maximum-Head-Change  Column Row Layer    Maximum-Flux-Residual          L2-NORM 
          0                 1           2             4    7     1       0.5151382564E-01       4    7    1         0.2702107982E+01      0.7140478123E+01
          0                 2           2             4    7     1      -0.5010893968E-02       4    7    1        -0.2702111042E+00      0.7140411740E+00
          0                 3           2             4    7     1       0.3412232692E-03       4    7    1         0.1891478258E-01      0.4998294054E-01
          0                 4           1             4    7     1      -0.1357759324E-04       4    7    1        -0.7736156992E-03      0.2044299584E-02

    ------------------------------------------------
       NWT REQUIRED            4 OUTER ITERATIONS 
       AND A TOTAL OF          7 INNER ITERATIONS.
    ------------------------------------------------

 NO OUTPUT CONTROL FOR STRESS PERIOD   46   TIME STEP   13
 
 SOLVING FOR HEAD 
                                                   Max.-Head-Change                         Max.-Flux-Residual
  Residual-Control   Outer-Iter.   Inner-Iter.     Column Row Layer    Maximum-Head-Change  Column Row Layer    Maximum-Flux-Residual          L2-NORM 
          0                 1           2             4    7     1       0.5099785564E-01       4    7    1         0.2676358743E+01      0.6965097816E+01
          0                 2           2             4    7     1      -0.4960707074E-02       4    7    1        -0.2676363731E+00      0.6965037640E+00
          0                 3           2             4    7     1       0.3378056990E-03       4    7    1         0.1873454949E-01      0.4875532101E-01
          0                 4           1             4    7     1      -0.1344160486E-04       4    7    1        -0.7662441610E-03      0.1994096944E-02

    ------------------------------------------------
       NWT REQUIRED            4 OUTER ITERATIONS 
       AND A TOTAL OF          7 INNER ITERATIONS.
    ------------------------------------------------

 NO OUTPUT CONTROL FOR STRESS PERIOD   46   TIME STEP   14
 
 SOLVING FOR HEAD 
                                                   Max.-Head-Change                         Max.-Flux-Residual
  Residual-Control   Outer-Iter.   Inner-Iter.     Column Row Layer    Maximum-Head-Change  Column Row Layer    Maximum-Flux-Residual          L2-NORM 
          0                 1           2             4    7     1       0.5046364473E-01       4    7    1         0.2649546803E+01      0.6797195528E+01
          0                 2           2             4    7     1      -0.4908745483E-02       4    7    1        -0.2649553484E+00      0.6797140987E+00
          0                 3           2             4    7     1       0.3342672820E-03       4    7    1         0.1854687606E-01      0.4758003700E-01
          0                 4           1             4    7     1      -0.1330080806E-04       4    7    1        -0.7585683104E-03      0.1946026265E-02

    ------------------------------------------------
       NWT REQUIRED            4 OUTER ITERATIONS 
       AND A TOTAL OF          7 INNER ITERATIONS.
    ------------------------------------------------

 NO OUTPUT CONTROL FOR STRESS PERIOD   46   TIME STEP   15
 
 SOLVING FOR HEAD 
                                                   Max.-Head-Change                         Max.-Flux-Residual
  Residual-Control   Outer-Iter.   Inner-Iter.     Column Row Layer    Maximum-Head-Change  Column Row Layer    Maximum-Flux-Residual          L2-NORM 
          0                 1           2             4    7     1       0.4991356137E-01       4    7    1         0.2621803018E+01      0.6636333736E+01
          0                 2           2             4    7     1      -0.4855239618E-02       4    7    1        -0.2621811180E+00      0.6636284199E+00
          0                 3           2             4    7     1       0.3306237090E-03       4    7    1         0.1835267845E-01      0.4645403220E-01
          0                 4           1             4    7     1      -0.1315582707E-04       4    7    1        -0.7506256302E-03      0.1899971875E-02

    ------------------------------------------------
       NWT REQUIRED            4 OUTER ITERATIONS 
       AND A TOTAL OF          7 INNER ITERATIONS.
    ------------------------------------------------

 NO OUTPUT CONTROL FOR STRESS PERIOD   46   TIME STEP   16
 
 SOLVING FOR HEAD 
                                                   Max.-Head-Change                         Max.-Flux-Residual
  Residual-Control   Outer-Iter.   Inner-Iter.     Column Row Layer    Maximum-Head-Change  Column Row Layer    Maximum-Flux-Residual          L2-NORM 
          0                 1           2             4    7     1       0.4934929751E-01       4    7    1         0.2593221723E+01      0.6482071269E+01
          0                 2           2             4    7     1      -0.4800354089E-02       4    7    1        -0.2593231175E+00      0.6482026254E+00
          0                 3           2             4    7     1       0.3268861893E-03       4    7    1         0.1815261714E-01      0.4537422161E-01
          0                 4           1             4    7     1      -0.1300710777E-04       4    7    1        -0.7424431210E-03      0.1855807804E-02

    ------------------------------------------------
       NWT REQUIRED            4 OUTER ITERATIONS 
       AND A TOTAL OF          7 INNER ITERATIONS.
    ------------------------------------------------

 NO OUTPUT CONTROL FOR STRESS PERIOD   46   TIME STEP   17
 
 SOLVING FOR HEAD 
                                                   Max.-Head-Change                         Max.-Flux-Residual
  Residual-Control   Outer-Iter.   Inner-Iter.     Column Row Layer    Maximum-Head-Change  Column Row Layer    Maximum-Flux-Residual          L2-NORM 
          0                 1           2             4    7     1       0.4877282108E-01       4    7    1         0.2563912142E+01      0.6334017917E+01
          0                 2           2             4    7     1      -0.4744280349E-02       4    7    1        -0.2563922712E+00      0.6333976938E+00
          0                 3           2             4    7     1       0.3230677589E-03       4    7    1         0.1794745674E-01      0.4433787087E-01
          0                 4           1             4    7     1      -0.1285516893E-04       4    7    1        -0.7340520556E-03      0.1813422176E-02

    ------------------------------------------------
       NWT REQUIRED            4 OUTER ITERATIONS 
       AND A TOTAL OF          7 INNER ITERATIONS.
    ------------------------------------------------

 NO OUTPUT CONTROL FOR STRESS PERIOD   46   TIME STEP   18
 
 SOLVING FOR HEAD 
                                                   Max.-Head-Change                         Max.-Flux-Residual
  Residual-Control   Outer-Iter.   Inner-Iter.     Column Row Layer    Maximum-Head-Change  Column Row Layer    Maximum-Flux-Residual          L2-NORM 
          0                 1           2             4    7     1       0.4818584385E-01       4    7    1         0.2533969224E+01      0.6191809511E+01
          0                 2           2             4    7     1      -0.4687184931E-02       4    7    1        -0.2533980754E+00      0.6191772164E+00
          0                 3           2             4    7     1       0.3191797583E-03       4    7    1         0.1773786203E-01      0.4334243523E-01
          0                 4           1             4    7     1      -0.1270046195E-04       4    7    1        -0.7254796360E-03      0.1772712401E-02

    ------------------------------------------------
       NWT REQUIRED            4 OUTER ITERATIONS 
       AND A TOTAL OF          7 INNER ITERATIONS.
    ------------------------------------------------

 NO OUTPUT CONTROL FOR STRESS PERIOD   46   TIME STEP   19
 
 SOLVING FOR HEAD 
                                                   Max.-Head-Change                         Max.-Flux-Residual
  Residual-Control   Outer-Iter.   Inner-Iter.     Column Row Layer    Maximum-Head-Change  Column Row Layer    Maximum-Flux-Residual          L2-NORM 
          0                 1           2             4    7     1       0.4758982007E-01       4    7    1         0.2503474393E+01      0.6055107482E+01
          0                 2           2             4    7     1      -0.4629209320E-02       4    7    1        -0.2503486740E+00      0.6055073379E+00
          0                 3           2             4    7     1       0.3152318220E-03       4    7    1         0.1752440308E-01      0.4238553441E-01
          0                 4           1             4    7     1      -0.1254336988E-04       4    7    1        -0.7167491451E-03      0.1733571253E-02

    ------------------------------------------------
       NWT REQUIRED            4 OUTER ITERATIONS 
       AND A TOTAL OF          7 INNER ITERATIONS.
    ------------------------------------------------

 NO OUTPUT CONTROL FOR STRESS PERIOD   46   TIME STEP   20
 
 SOLVING FOR HEAD 
                                                   Max.-Head-Change                         Max.-Flux-Residual
  Residual-Control   Outer-Iter.   Inner-Iter.     Column Row Layer    Maximum-Head-Change  Column Row Layer    Maximum-Flux-Residual          L2-NORM 
          0                 1           2             4    7     1       0.4698609919E-01       4    7    1         0.2472503165E+01      0.5923591135E+01
          0                 2           2             4    7     1      -0.4570484797E-02       4    7    1        -0.2472516203E+00      0.5923559946E+00
          0                 3           2             4    7     1       0.3112328889E-03       4    7    1         0.1730760855E-01      0.4146493824E-01
          0                 4           1             4    7     1      -0.1238424857E-04       4    7    1        -0.7078822355E-03      0.1695919782E-02

    ------------------------------------------------
       NWT REQUIRED            4 OUTER ITERATIONS 
       AND A TOTAL OF          7 INNER ITERATIONS.
    ------------------------------------------------

 NO OUTPUT CONTROL FOR STRESS PERIOD   46   TIME STEP   21
 
 SOLVING FOR HEAD 
                                                   Max.-Head-Change                         Max.-Flux-Residual
  Residual-Control   Outer-Iter.   Inner-Iter.     Column Row Layer    Maximum-Head-Change  Column Row Layer    Maximum-Flux-Residual          L2-NORM 
          0                 1           2             4    7     1       0.4637633162E-01       4    7    1         0.2441147020E+01      0.5796989793E+01
          0                 2           2             4    7     1      -0.4511171923E-02       4    7    1        -0.2441160633E+00      0.5796961172E+00
          0                 3           2             4    7     1       0.3071938935E-03       4    7    1         0.1708811894E-01      0.4057874148E-01
          0                 4           1             4    7     1      -0.1222353297E-04       4    7    1        -0.6989050821E-03      0.1659673406E-02

    ------------------------------------------------
       NWT REQUIRED            4 OUTER ITERATIONS 
       AND A TOTAL OF          7 INNER ITERATIONS.
    ------------------------------------------------

 NO OUTPUT CONTROL FOR STRESS PERIOD   46   TIME STEP   22
 
 SOLVING FOR HEAD 
                                                   Max.-Head-Change                         Max.-Flux-Residual
  Residual-Control   Outer-Iter.   Inner-Iter.     Column Row Layer    Maximum-Head-Change  Column Row Layer    Maximum-Flux-Residual          L2-NORM 
          0                 1           2             4    7     1       0.4576165295E-01       4    7    1         0.2409470018E+01      0.5675007742E+01
          0                 2           2             4    7     1      -0.4451381178E-02       4    7    1        -0.2409484102E+00      0.5674981432E+00
          0                 3           2             4    7     1       0.3031223584E-03       4    7    1         0.1686638268E-01      0.3972487661E-01
          0                 4           1             4    7     1      -0.1206152277E-04       4    7    1        -0.6898360741E-03      0.1624749889E-02

    ------------------------------------------------
       NWT REQUIRED            4 OUTER ITERATIONS 
       AND A TOTAL OF          7 INNER ITERATIONS.
    ------------------------------------------------

 NO OUTPUT CONTROL FOR STRESS PERIOD   46   TIME STEP   23
 
 SOLVING FOR HEAD 
                                                   Max.-Head-Change                         Max.-Flux-Residual
  Residual-Control   Outer-Iter.   Inner-Iter.     Column Row Layer    Maximum-Head-Change  Column Row Layer    Maximum-Flux-Residual          L2-NORM 
          0                 1           2             4    7     1       0.4514324319E-01       4    7    1         0.2377538129E+01      0.5557406320E+01
          0                 2           2             4    7     1      -0.4391227361E-02       4    7    1        -0.2377552592E+00      0.5557382021E+00
          0                 3           2             4    7     1       0.2990261006E-03       4    7    1         0.1664286165E-01      0.3890168545E-01
          0                 4           1             4    7     1      -0.1189852902E-04       4    7    1        -0.6806940530E-03      0.1591097314E-02

    ------------------------------------------------
       NWT REQUIRED            4 OUTER ITERATIONS 
       AND A TOTAL OF          7 INNER ITERATIONS.
    ------------------------------------------------

 NO OUTPUT CONTROL FOR STRESS PERIOD   46   TIME STEP   24
 
 SOLVING FOR HEAD 
                                                   Max.-Head-Change                         Max.-Flux-Residual
  Residual-Control   Outer-Iter.   Inner-Iter.     Column Row Layer    Maximum-Head-Change  Column Row Layer    Maximum-Flux-Residual          L2-NORM 
          0                 1           2             4    7     1       0.4452206625E-01       4    7    1         0.2345405559E+01      0.5443947440E+01
          0                 2           2             4    7     1      -0.4330804247E-02       4    7    1        -0.2345420318E+00      0.5443924986E+00
          0                 3           2             4    7     1       0.2949115065E-03       4    7    1         0.1641793537E-01      0.3810747540E-01
          0                 4           1             4    7     1      -0.1173480572E-04       4    7    1        -0.6714945737E-03      0.1558598328E-02

    ------------------------------------------------
       NWT REQUIRED            4 OUTER ITERATIONS 
       AND A TOTAL OF          7 INNER ITERATIONS.
    ------------------------------------------------

 NO OUTPUT CONTROL FOR STRESS PERIOD   46   TIME STEP   25
 
 SOLVING FOR HEAD 
                                                   Max.-Head-Change                         Max.-Flux-Residual
  Residual-Control   Outer-Iter.   Inner-Iter.     Column Row Layer    Maximum-Head-Change  Column Row Layer    Maximum-Flux-Residual          L2-NORM 
          0                 1           2             4    7     1       0.4389927072E-01       4    7    1         0.2313136475E+01      0.5334422288E+01
          0                 2           2             4    7     1      -0.4270223576E-02       4    7    1        -0.2313151455E+00      0.5334401359E+00
          0                 3           2             4    7     1       0.2907861835E-03       4    7    1         0.1619205300E-01      0.3734080746E-01
          0                 4           1             4    7     1      -0.1157065517E-04       4    7    1        -0.6622559567E-03      0.1527244138E-02

    ------------------------------------------------
       NWT REQUIRED            4 OUTER ITERATIONS 
       AND A TOTAL OF          7 INNER ITERATIONS.
    ------------------------------------------------

 NO OUTPUT CONTROL FOR STRESS PERIOD   46   TIME STEP   26
 
 SOLVING FOR HEAD 
                                                   Max.-Head-Change                         Max.-Flux-Residual
  Residual-Control   Outer-Iter.   Inner-Iter.     Column Row Layer    Maximum-Head-Change  Column Row Layer    Maximum-Flux-Residual          L2-NORM 
          0                 1           2             4    7     1       0.4327578928E-01       4    7    1         0.2280783454E+01      0.5228623066E+01
          0                 2           2             4    7     1      -0.4209576085E-02       4    7    1        -0.2280798589E+00      0.5228603535E+00
          0                 3           2             4    7     1       0.2866563117E-03       4    7    1         0.1596558269E-01      0.3660021536E-01
          0                 4           1             4    7     1      -0.1140632365E-04       4    7    1        -0.6529933128E-03      0.1496950405E-02

    ------------------------------------------------
       NWT REQUIRED            4 OUTER ITERATIONS 
       AND A TOTAL OF          7 INNER ITERATIONS.
    ------------------------------------------------

 NO OUTPUT CONTROL FOR STRESS PERIOD   46   TIME STEP   27
 
 SOLVING FOR HEAD 
                                                   Max.-Head-Change                         Max.-Flux-Residual
  Residual-Control   Outer-Iter.   Inner-Iter.     Column Row Layer    Maximum-Head-Change  Column Row Layer    Maximum-Flux-Residual          L2-NORM 
          0                 1           2             4    7     1       0.4265247694E-01       4    7    1         0.2248394618E+01      0.5126365052E+01
          0                 2           2             4    7     1      -0.4148944954E-02       4    7    1        -0.2248409848E+00      0.5126346727E+00
          0                 3           2             4    7     1       0.2825275550E-03       4    7    1         0.1573886133E-01      0.3588441374E-01
          0                 4           1             4    7     1      -0.1124203656E-04       4    7    1        -0.6437203858E-03      0.1467675544E-02

    ------------------------------------------------
       NWT REQUIRED            4 OUTER ITERATIONS 
       AND A TOTAL OF          7 INNER ITERATIONS.
    ------------------------------------------------

 NO OUTPUT CONTROL FOR STRESS PERIOD   46   TIME STEP   28
 
 SOLVING FOR HEAD 
                                                   Max.-Head-Change                         Max.-Flux-Residual
  Residual-Control   Outer-Iter.   Inner-Iter.     Column Row Layer    Maximum-Head-Change  Column Row Layer    Maximum-Flux-Residual          L2-NORM 
          0                 1           2             4    7     1       0.4202998557E-01       4    7    1         0.2216007200E+01      0.5027465798E+01
          0                 2           2             4    7     1      -0.4088393601E-02       4    7    1        -0.2216022472E+00      0.5027448539E+00
          0                 3           2             4    7     1       0.2784042315E-03       4    7    1         0.1551214956E-01      0.3519212482E-01
          0                 4           1             4    7     1      -0.1107796557E-04       4    7    1        -0.6344478661E-03      0.1439360224E-02

    ------------------------------------------------
       NWT REQUIRED            4 OUTER ITERATIONS 
       AND A TOTAL OF          7 INNER ITERATIONS.
    ------------------------------------------------

 NO OUTPUT CONTROL FOR STRESS PERIOD   46   TIME STEP   29
 
 SOLVING FOR HEAD 
                                                   Max.-Head-Change                         Max.-Flux-Residual
  Residual-Control   Outer-Iter.   Inner-Iter.     Column Row Layer    Maximum-Head-Change  Column Row Layer    Maximum-Flux-Residual          L2-NORM 
          0                 1           2             4    7     1       0.4140917542E-01       4    7    1         0.2183669550E+01      0.4931759709E+01
          0                 2           2             4    7     1      -0.4028005716E-02       4    7    1        -0.2183684818E+00      0.4931743328E+00
          0                 3           2             4    7     1       0.2742920402E-03       4    7    1         0.1528578588E-01      0.3452217774E-01
          0                 4           1             4    7     1      -0.1091433794E-04       4    7    1        -0.6251895829E-03      0.1411958454E-02

    ------------------------------------------------
       NWT REQUIRED            4 OUTER ITERATIONS 
       AND A TOTAL OF          7 INNER ITERATIONS.
    ------------------------------------------------

 NO OUTPUT CONTROL FOR STRESS PERIOD   46   TIME STEP   30



 STREAM LISTING     PERIOD     46   STEP       30

 LAYER ROW COL. STREAM  RCH.  FLOW INTO     FLOW TO   FLOW OUT OF   OVRLND.     DIRECT     STREAM       STREAM     STREAM     STREAM   STREAMBED  STREAMBED
                SEG.NO.  NO.  STRM. RCH.    AQUIFER    STRM. RCH.    RUNOFF     PRECIP       ET          HEAD       DEPTH      WIDTH   CONDCTNC.   GRADIENT

   1    1    1     1     1    1.9000E+01  2.1427E-01   1.8786E+01  0.000E+00  0.000E+00  0.000E+00  1.09413E+03  1.082E+00  1.166E+01  5.249E-02  1.361E+00
   1    2    2     1     2    1.8786E+01  3.3054E-01   1.8455E+01  0.000E+00  0.000E+00  0.000E+00  1.08914E+03  1.077E+00  1.158E+01  8.107E-02  1.359E+00
   1    3    3     1     3    1.8455E+01  2.8064E-01   1.8175E+01  0.000E+00  0.000E+00  0.000E+00  1.08349E+03  1.072E+00  1.149E+01  6.892E-02  1.357E+00
   1    3    4     1     4    1.8175E+01  2.5740E-01   1.7917E+01  0.000E+00  0.000E+00  0.000E+00  1.07848E+03  1.068E+00  1.140E+01  6.328E-02  1.356E+00
   1    4    5     2     1    1.5917E+01  3.0542E-01   1.5612E+01  0.000E+00  0.000E+00  0.000E+00  1.07285E+03  9.157E-01  1.200E+01  7.800E-02  1.305E+00
   1    5    6     2     2    1.5612E+01  2.3438E-01   1.5377E+01  0.000E+00  0.000E+00  0.000E+00  1.06742E+03  9.063E-01  1.200E+01  6.000E-02  1.302E+00
   1    6    6     2     3    1.5377E+01  2.3388E-01   1.5143E+01  0.000E+00  0.000E+00  0.000E+00  1.06269E+03  8.980E-01  1.200E+01  6.000E-02  1.299E+00
   1    7    6     2     4    1.5143E+01  2.3338E-01   1.4910E+01  0.000E+00  0.000E+00  0.000E+00  1.05797E+03  8.897E-01  1.200E+01  6.000E-02  1.297E+00
   1    8    6     2     5    1.4910E+01  2.3289E-01   1.4677E+01  0.000E+00  0.000E+00  0.000E+00  1.05324E+03  8.814E-01  1.200E+01  6.000E-02  1.294E+00
   1    3    5     3     1    2.0000E+00  2.8252E-01   1.7175E+00  0.000E+00  0.000E+00  0.000E+00  1.07555E+03  1.909E+00  9.636E+00  7.227E-02  1.955E+00
   1    3    6     3     2    1.7175E+00  2.4905E-01   1.4684E+00  0.000E+00  0.000E+00  0.000E+00  1.07264E+03  1.727E+00  8.909E+00  6.682E-02  1.864E+00
   1    3    7     3     3    1.4684E+00  1.9718E-01   1.2712E+00  0.000E+00  0.000E+00  0.000E+00  1.06987E+03  1.555E+00  8.218E+00  5.547E-02  1.777E+00
   1    4    8     3     4    1.2712E+00  2.2567E-01   1.0456E+00  0.000E+00  0.000E+00  0.000E+00  1.06682E+03  1.364E+00  7.455E+00  6.709E-02  1.682E+00
   1    5    8     3     5    1.0456E+00  1.5790E-01   8.8768E-01  0.000E+00  0.000E+00  0.000E+00  1.06362E+03  1.164E+00  6.655E+00  4.991E-02  1.582E+00
   1    6    8     3     6    8.8768E-01  5.5980E-02   8.3170E-01  0.000E+00  0.000E+00  0.000E+00  1.06158E+03  1.036E+00  6.145E+00  1.844E-02  1.518E+00
   1    5   10     4     1    1.0000E+01  9.0919E-02   9.9091E+00  0.000E+00  0.000E+00  0.000E+00  1.07836E+03  6.368E-01  1.000E+01  2.500E-02  1.212E+00
   1    5    9     4     2    9.9091E+00  1.8158E-01   9.7275E+00  0.000E+00  0.000E+00  0.000E+00  1.07154E+03  6.315E-01  1.000E+01  5.000E-02  1.211E+00
   1    6    8     4     3    9.7275E+00  1.2689E-01   9.6006E+00  0.000E+00  0.000E+00  0.000E+00  1.06381E+03  6.256E-01  1.000E+01  3.500E-02  1.209E+00
   1    6    8     5     1    1.0432E+01  2.2686E-01   1.0205E+01  0.000E+00  0.000E+00  0.000E+00  1.05868E+03  6.790E-01  1.542E+01  6.166E-02  1.226E+00
   1    7    7     5     2    1.0205E+01  2.7894E-01   9.9265E+00  0.000E+00  0.000E+00  0.000E+00  1.05417E+03  6.732E-01  1.519E+01  7.594E-02  1.224E+00
   1    8    7     5     3    9.9265E+00  1.9221E-01   9.7343E+00  0.000E+00  0.000E+00  0.000E+00  1.04992E+03  6.676E-01  1.497E+01  5.241E-02  1.223E+00
   1    8    6     5     4    9.7343E+00  1.3577E-01   9.5985E+00  0.000E+00  0.000E+00  0.000E+00  1.04691E+03  6.637E-01  1.482E+01  3.706E-02  1.221E+00
   1    9    6     6     1    2.4276E+01  2.5176E-01   2.4024E+01  0.000E+00  0.000E+00  0.000E+00  1.04392E+03  1.196E+00  1.200E+01  6.000E-02  1.399E+00
   1   10    7     6     2    2.4024E+01  2.5131E-01   2.3773E+01  0.000E+00  0.000E+00  0.000E+00  1.03937E+03  1.188E+00  1.200E+01  6.000E-02  1.396E+00
   1   11    7     6     3    2.3773E+01  2.5086E-01   2.3522E+01  0.000E+00  0.000E+00  0.000E+00  1.03482E+03  1.181E+00  1.200E+01  6.000E-02  1.394E+00
   1   12    7     6     4    2.3522E+01  2.5041E-01   2.3271E+01  0.000E+00  0.000E+00  0.000E+00  1.03026E+03  1.173E+00  1.200E+01  6.000E-02  1.391E+00
   1   13    7     6     5    2.3271E+01  1.1668E-02   2.3260E+01  0.000E+00  0.000E+00  0.000E+00  1.02708E+03  1.169E+00  1.200E+01  2.400E-02  1.621E-01
   1   14    9     7     1    1.5000E+02  1.3770E+00   1.4862E+02  0.000E+00  0.000E+00  0.000E+00  1.03987E+03  2.288E+00  5.529E+01  5.593E-01  8.207E-01
   1   13    8     7     2    1.4862E+02  1.9849E+00   1.4664E+02  0.000E+00  0.000E+00  0.000E+00  1.03478E+03  2.279E+00  5.525E+01  6.147E-01  1.076E+00
   1   13    7     7     3    1.4664E+02  1.7285E+00   1.4491E+02  0.000E+00  0.000E+00  0.000E+00  1.02969E+03  2.269E+00  5.521E+01  5.584E-01  1.032E+00
   1   13    6     8     1    1.6817E+02  1.1584E+00   1.6701E+02  0.000E+00  0.000E+00  0.000E+00  1.02481E+03  2.936E+00  4.258E+01  4.339E-01  8.899E-01
   1   13    5     8     2    1.6701E+02  3.9189E-01   1.6662E+02  0.000E+00  0.000E+00  0.000E+00  1.01856E+03  2.931E+00  4.250E+01  4.331E-01  3.016E-01
   1   13    4     8     3    1.6662E+02 -1.7157E+00   1.6833E+02  0.000E+00  0.000E+00  0.000E+00  1.01231E+03  2.936E+00  4.257E+01  4.338E+00 -1.318E-01
   1   13    3     8     4    1.6833E+02 -3.2950E+00   1.7163E+02  0.000E+00  0.000E+00  0.000E+00  1.00608E+03  2.952E+00  4.281E+01  4.362E+00 -2.518E-01
   1   13    2     8     5    1.7163E+02 -2.4861E+00   1.7412E+02  0.000E+00  0.000E+00  0.000E+00  9.99846E+02  2.971E+00  4.308E+01  4.390E+00 -1.888E-01
   1   13    1     8     6    1.7412E+02 -1.9578E+00   1.7607E+02  0.000E+00  0.000E+00  0.000E+00  9.94860E+02  2.985E+00  4.328E+01  2.646E+00 -2.466E-01





UNSATURATED ZONE PACKAGE VOLUMETRIC BUDGET FOR  TIME STEP    30 STRESS PERIOD   46
  ------------------------------------------------------------------------------



     CUMULATIVE VOLUMES      L**3       RATES FOR THIS TIME STEP      L**3/T
     ------------------                 ------------------------

           IN:                                      IN:
           ---                                      ---
        INFILTRATION =  2114508549.6697          INFILTRATION =          15.3460

          OUT:                                     OUT:
          ----                                     ----
              UZF ET =  1987362283.0509                UZF ET =          15.3575
        UZF RECHARGE =     1377598.4857          UZF RECHARGE =           0.0001

            IN - OUT =   125768668.1331              IN - OUT =      -1.1573E-02

          STORAGE:                                 STORAGE:
          --------                                 --------
      STORAGE CHANGE =   125770290.4171        STORAGE CHANGE =      -1.1573E-02

 PERCENT DISCREPANCY IS DIFFERENCE BETWEEN IN-OUT MINUS CHANGE IN STORAGE
 DIVIDED BY THE AVERAGE OF IN AND OUT TIMES 100

 PERCENT DISCREPANCY =          -0.00     PERCENT DISCREPANCY =           0.00






1
  VOLUMETRIC BUDGET FOR ENTIRE MODEL AT END OF TIME STEP   30, STRESS PERIOD  46
  ------------------------------------------------------------------------------

     CUMULATIVE VOLUMES      L**3       RATES FOR THIS TIME STEP      L**3/T
     ------------------                 ------------------------

           IN:                                      IN:
           ---                                      ---
               AG WELLS  =  1592807680.0000                 AG WELLS  =          10.9385
      DIVERSION SEGMENTS =           0.0000        DIVERSION SEGMENTS =           0.0000
           GW IRRIGATION =           0.0000             GW IRRIGATION =           0.0000
           SW IRRIGATION =           0.0000             SW IRRIGATION =           0.0000
        SYSTEM LOSSES GW =           0.0000          SYSTEM LOSSES GW =           0.0000
        SYSTEM LOSSES SW =           0.0000          SYSTEM LOSSES SW =           0.0000

                TOTAL IN =  1592807680.0000                  TOTAL IN =          10.9385

          OUT:                                     OUT:
          ----                                     ----
               AG WELLS  =           0.0000                 AG WELLS  =           0.0000
      DIVERSION SEGMENTS =           0.0000        DIVERSION SEGMENTS =           0.0000
           GW IRRIGATION =  1592807680.0000             GW IRRIGATION =          10.9385
           SW IRRIGATION =           0.0000             SW IRRIGATION =           0.0000
        SYSTEM LOSSES GW =           0.0000          SYSTEM LOSSES GW =           0.0000
        SYSTEM LOSSES SW =           0.0000          SYSTEM LOSSES SW =           0.0000

               TOTAL OUT =  1592807680.0000                 TOTAL OUT =          10.9385

                IN - OUT =           0.0000                  IN - OUT =           0.0000

     PERCENT DISCREPANCY =           0.00         PERCENT DISCREPANCY =           0.00



1
  VOLUMETRIC BUDGET FOR ENTIRE MODEL AT END OF TIME STEP   30, STRESS PERIOD  46
  ------------------------------------------------------------------------------

     CUMULATIVE VOLUMES      L**3       RATES FOR THIS TIME STEP      L**3/T
     ------------------                 ------------------------

           IN:                                      IN:
           ---                                      ---
             STORAGE     =  2088284160.0000               STORAGE     =          17.9706
       CONSTANT HEAD     =           0.0000         CONSTANT HEAD     =           0.0000
     HEAD DEP BOUNDS     =    33903324.0000       HEAD DEP BOUNDS     =           0.2886
      STREAM LEAKAGE     =  1450793088.0000        STREAM LEAKAGE     =          12.3810
        UZF RECHARGE     =     1377598.7500          UZF RECHARGE     =       8.2806E-05
               GW ET     =           0.0000                 GW ET     =           0.0000
     SURFACE LEAKAGE     =           0.0000       SURFACE LEAKAGE     =           0.0000
           AG WELLS      =           0.0000             AG WELLS      =           0.0000

                TOTAL IN =  3574358272.0000                  TOTAL IN =          30.6402

          OUT:                                     OUT:
          ----                                     ----
             STORAGE     =   729920192.0000               STORAGE     =           9.9584
       CONSTANT HEAD     =           0.0000         CONSTANT HEAD     =           0.0000
     HEAD DEP BOUNDS     =    34551832.0000       HEAD DEP BOUNDS     =           0.2888
      STREAM LEAKAGE     =  1199762560.0000        STREAM LEAKAGE     =           9.4546
        UZF RECHARGE     =           0.0000          UZF RECHARGE     =           0.0000
               GW ET     =    17319432.0000                 GW ET     =           0.0000
     SURFACE LEAKAGE     =           0.0000       SURFACE LEAKAGE     =           0.0000
           AG WELLS      =  1592807680.0000             AG WELLS      =          10.9385

               TOTAL OUT =  3574361600.0000                 TOTAL OUT =          30.6403

                IN - OUT =       -3328.0000                  IN - OUT =      -2.4796E-05

     PERCENT DISCREPANCY =          -0.00         PERCENT DISCREPANCY =          -0.00






         TIME SUMMARY AT END OF TIME STEP   30 IN STRESS PERIOD   46
                    SECONDS     MINUTES      HOURS       DAYS        YEARS
                    -----------------------------------------------------------
   TIME STEP LENGTH  87667.      1461.1      24.352      1.0147     2.77799E-03
 STRESS PERIOD TIME 2.63000E+06  43833.      730.56      30.440     8.33397E-02
         TOTAL TIME 1.18435E+08 1.97392E+06  32899.      1370.8      3.7530    
1
1
                            STRESS PERIOD NO.   47, LENGTH =   2630000.    
                            -----------------------------------------------

                              NUMBER OF TIME STEPS =    30

                               MULTIPLIER FOR DELT =     1.000

                            INITIAL TIME STEP SIZE =   87666.66    

 REUSING NON-PARAMETER GHB CELLS FROM LAST STRESS PERIOD

      2 GHB CELLS

 REUSING STREAM SEGMENT DATA FROM LAST STRESS PERIOD



            AREAL INFILTRATION RATE
 READING ON UNIT   19 WITH FORMAT: (10F4.0)            

            1           2           3           4           5           6           7           8           9          10
 ........................................................................................................................
   1   1.2000E-09   0.000       0.000       0.000       0.000       0.000       0.000       0.000       0.000       0.000    
   2   2.1000E-09  2.0000E-09  8.0000E-10  8.5000E-09   0.000       0.000       0.000       0.000       0.000       0.000    
   3   5.0000E-10  1.1000E-09  8.8000E-09  5.5000E-09   0.000       0.000       0.000       0.000       0.000       0.000    
   4   8.5000E-09  1.1000E-09  1.1000E-09  1.1000E-09  2.0000E-09   0.000       0.000       0.000       0.000       0.000    
   5   8.5000E-09  1.1000E-09  1.1000E-09  1.1000E-09  1.1000E-09   0.000       0.000       0.000       0.000       0.000    
   6   8.5000E-09  5.2000E-09  2.1000E-09  1.1000E-09  1.5000E-09   0.000       0.000       0.000       0.000       0.000    
   7   8.5000E-09  5.2000E-09  2.1000E-09  1.2000E-09  2.0000E-09   0.000       0.000       0.000       0.000       0.000    
   8   5.0000E-10  5.2000E-09  2.1000E-09  1.2000E-09  5.0000E-09   0.000       0.000       0.000       0.000       0.000    
   9   5.0000E-10  5.2000E-09  2.1000E-09  1.2000E-09  5.0000E-09   0.000       0.000       0.000       0.000       0.000    
  10   5.0000E-10  5.2000E-09  2.1000E-09  1.2000E-09  5.8000E-09   0.000       0.000       0.000       0.000       0.000    
  11   1.0000E-10  1.1000E-09  1.1000E-09  1.2000E-09  5.0000E-09   0.000       0.000       0.000       0.000       0.000    
  12   1.1000E-09  1.1000E-09  1.1000E-09  1.1000E-09  2.0000E-09   0.000       0.000       0.000       0.000       0.000    
  13   1.1000E-09  2.2000E-09  2.2000E-09  2.1000E-09  1.0000E-09   0.000       0.000       0.000       0.000       0.000    
  14   2.0000E-10  5.5000E-09  5.5000E-09  5.2000E-09  1.0000E-09   0.000       0.000       0.000       0.000       0.000    
  15    0.000      8.8000E-09  8.8000E-09   0.000       0.000       0.000       0.000       0.000       0.000       0.000    

                  ET RATE =  5.000000E-09

 USING ET EXTINCTION DEPTH FROM PREVIOUS STRESS PERIOD. CURRENT PERIOD IS:      47

 USING EXTINCTION WATER CONTENT FROM PREVIOUS STRESS PERIOD. CURRENT PERIOD IS:      47

 USING AIR ENTRY PRESSURE FROM PREVIOUS STRESS PERIOD. CURRENT PERIOD IS:      47

 USING ROOT PRESSURE HEAD FROM PREVIOUS STRESS PERIOD. CURRENT PERIOD IS:      47

 USING ROOT ACTIVITY FROM PREVIOUS STRESS PERIOD. CURRENT PERIOD IS:      47

 PROCESSING AG STRESS PERIOD DATA

 READING AG STRESS PERIOD DATA

 READING IRRIGATION WELL

 END PROCESSING AG STRESS PERIOD DATA OPTIONS
 
 SOLVING FOR HEAD 
                                                   Max.-Head-Change                         Max.-Flux-Residual
  Residual-Control   Outer-Iter.   Inner-Iter.     Column Row Layer    Maximum-Head-Change  Column Row Layer    Maximum-Flux-Residual          L2-NORM 
          0                 1           2             4    7     1       0.7608890077E-01       4    7    1         0.3994221461E+01      0.8926646063E+01
          0                 2           2             4    7     1      -0.7401439190E-02       4    7    1        -0.3994265047E+00      0.8926646312E+00
          0                 3           2             4    7     1       0.5040099440E-03       4    7    1         0.2795982616E-01      0.6248653711E-01
          0                 4           1             4    7     1      -0.2005502973E-04       4    7    1        -0.1143558663E-02      0.2555704815E-02

    ------------------------------------------------
       NWT REQUIRED            4 OUTER ITERATIONS 
       AND A TOTAL OF          7 INNER ITERATIONS.
    ------------------------------------------------

 NO OUTPUT CONTROL FOR STRESS PERIOD   47   TIME STEP    1
 
 SOLVING FOR HEAD 
                                                   Max.-Head-Change                         Max.-Flux-Residual
  Residual-Control   Outer-Iter.   Inner-Iter.     Column Row Layer    Maximum-Head-Change  Column Row Layer    Maximum-Flux-Residual          L2-NORM 
          0                 1           2             4    7     1       0.7528967413E-01       4    7    1         0.3953331354E+01      0.8753656132E+01
          0                 2           2             4    7     1      -0.7323698262E-02       4    7    1        -0.3953376292E+00      0.8753659313E+00
          0                 3           2             4    7     1       0.4987160553E-03       4    7    1         0.2767360346E-01      0.6127565428E-01
          0                 4           1             4    7     1      -0.1984438111E-04       4    7    1        -0.1131852158E-02      0.2506181188E-02

    ------------------------------------------------
       NWT REQUIRED            4 OUTER ITERATIONS 
       AND A TOTAL OF          7 INNER ITERATIONS.
    ------------------------------------------------

 NO OUTPUT CONTROL FOR STRESS PERIOD   47   TIME STEP    2
 
 SOLVING FOR HEAD 
                                                   Max.-Head-Change                         Max.-Flux-Residual
  Residual-Control   Outer-Iter.   Inner-Iter.     Column Row Layer    Maximum-Head-Change  Column Row Layer    Maximum-Flux-Residual          L2-NORM 
          0                 1           2             4    7     1       0.7448005316E-01       4    7    1         0.3911806621E+01      0.8587172150E+01
          0                 2           2             4    7     1      -0.7244945891E-02       4    7    1        -0.3911852670E+00      0.8587177230E+00
          0                 3           2             4    7     1       0.4933532946E-03       4    7    1         0.2738293694E-01      0.6011027314E-01
          0                 4           1             4    7     1      -0.1963099210E-04       4    7    1        -0.1119963886E-02      0.2458517265E-02

    ------------------------------------------------
       NWT REQUIRED            4 OUTER ITERATIONS 
       AND A TOTAL OF          7 INNER ITERATIONS.
    ------------------------------------------------

 NO OUTPUT CONTROL FOR STRESS PERIOD   47   TIME STEP    3
 
 SOLVING FOR HEAD 
                                                   Max.-Head-Change                         Max.-Flux-Residual
  Residual-Control   Outer-Iter.   Inner-Iter.     Column Row Layer    Maximum-Head-Change  Column Row Layer    Maximum-Flux-Residual          L2-NORM 
          0                 1           2             4    7     1       0.7366190020E-01       4    7    1         0.3869750145E+01      0.8426814106E+01
          0                 2           2             4    7     1      -0.7165363265E-02       4    7    1        -0.3869797088E+00      0.8426820442E+00
          0                 3           2             4    7     1       0.4879339996E-03       4    7    1         0.2708854689E-01      0.5898776489E-01
          0                 4           1             4    7     1      -0.1941535339E-04       4    7    1        -0.1107923315E-02      0.2412603877E-02

    ------------------------------------------------
       NWT REQUIRED            4 OUTER ITERATIONS 
       AND A TOTAL OF          7 INNER ITERATIONS.
    ------------------------------------------------

 NO OUTPUT CONTROL FOR STRESS PERIOD   47   TIME STEP    4
 
 SOLVING FOR HEAD 
                                                   Max.-Head-Change                         Max.-Flux-Residual
  Residual-Control   Outer-Iter.   Inner-Iter.     Column Row Layer    Maximum-Head-Change  Column Row Layer    Maximum-Flux-Residual          L2-NORM 
          0                 1           2             4    7     1       0.7283655575E-01       4    7    1         0.3827236825E+01      0.8272202388E+01
          0                 2           2             4    7     1      -0.7085080807E-02       4    7    1        -0.3827284464E+00      0.8272209565E+00
          0                 3           2             4    7     1       0.4824670518E-03       4    7    1         0.2679095774E-01      0.5790547972E-01
          0                 4           1             4    7     1      -0.1919781863E-04       4    7    1        -0.1095751913E-02      0.2368337174E-02

    ------------------------------------------------
       NWT REQUIRED            4 OUTER ITERATIONS 
       AND A TOTAL OF          7 INNER ITERATIONS.
    ------------------------------------------------

 NO OUTPUT CONTROL FOR STRESS PERIOD   47   TIME STEP    5
 
 SOLVING FOR HEAD 
                                                   Max.-Head-Change                         Max.-Flux-Residual
  Residual-Control   Outer-Iter.   Inner-Iter.     Column Row Layer    Maximum-Head-Change  Column Row Layer    Maximum-Flux-Residual          L2-NORM 
          0                 1           2             4    7     1       0.7200566395E-01       4    7    1         0.3784357826E+01      0.8123025520E+01
          0                 2           2             4    7     1      -0.7004258476E-02       4    7    1        -0.3784405982E+00      0.8123033312E+00
          0                 3           2             4    7     1       0.4769633427E-03       4    7    1         0.2649080774E-01      0.5686123727E-01
          0                 4           1             4    7     1      -0.1897882084E-04       4    7    1        -0.1083475761E-02      0.2325626755E-02

    ------------------------------------------------
       NWT REQUIRED            4 OUTER ITERATIONS 
       AND A TOTAL OF          7 INNER ITERATIONS.
    ------------------------------------------------

 NO OUTPUT CONTROL FOR STRESS PERIOD   47   TIME STEP    6
 
 SOLVING FOR HEAD 
                                                   Max.-Head-Change                         Max.-Flux-Residual
  Residual-Control   Outer-Iter.   Inner-Iter.     Column Row Layer    Maximum-Head-Change  Column Row Layer    Maximum-Flux-Residual          L2-NORM 
          0                 1           2             4    7     1       0.7117049277E-01       4    7    1         0.3741183948E+01      0.7978973039E+01
          0                 2           2             4    7     1      -0.6923019637E-02       4    7    1        -0.3741232460E+00      0.7978981408E+00
          0                 3           2             4    7     1       0.4714312735E-03       4    7    1         0.2618859261E-01      0.5585287000E-01
          0                 4           1             4    7     1      -0.1875869480E-04       4    7    1        -0.1071115145E-02      0.2284386221E-02

    ------------------------------------------------
       NWT REQUIRED            4 OUTER ITERATIONS 
       AND A TOTAL OF          7 INNER ITERATIONS.
    ------------------------------------------------

 NO OUTPUT CONTROL FOR STRESS PERIOD   47   TIME STEP    7
 
 SOLVING FOR HEAD 
                                                   Max.-Head-Change                         Max.-Flux-Residual
  Residual-Control   Outer-Iter.   Inner-Iter.     Column Row Layer    Maximum-Head-Change  Column Row Layer    Maximum-Flux-Residual          L2-NORM 
          0                 1           2             4    7     1       0.7033247973E-01       4    7    1         0.3697795382E+01      0.7839752526E+01
          0                 2           2             4    7     1      -0.6841504148E-02       4    7    1        -0.3697844105E+00      0.7839761753E+00
          0                 3           2             4    7     1       0.4658803682E-03       4    7    1         0.2588487381E-01      0.5487832896E-01
          0                 4           1             4    7     1      -0.1853781893E-04       4    7    1        -0.1058693039E-02      0.2244526709E-02

    ------------------------------------------------
       NWT REQUIRED            4 OUTER ITERATIONS 
       AND A TOTAL OF          7 INNER ITERATIONS.
    ------------------------------------------------

 NO OUTPUT CONTROL FOR STRESS PERIOD   47   TIME STEP    8
 
 SOLVING FOR HEAD 
                                                   Max.-Head-Change                         Max.-Flux-Residual
  Residual-Control   Outer-Iter.   Inner-Iter.     Column Row Layer    Maximum-Head-Change  Column Row Layer    Maximum-Flux-Residual          L2-NORM 
          0                 1           2             4    7     1       0.6949283084E-01       4    7    1         0.3654259438E+01      0.7705117082E+01
          0                 2           2             4    7     1      -0.6759829341E-02       4    7    1        -0.3654308241E+00      0.7705127708E+00
          0                 3           2             4    7     1       0.4603186147E-03       4    7    1         0.2558012255E-01      0.5393589168E-01
          0                 4           1             4    7     1      -0.1831651167E-04       4    7    1        -0.1046228680E-02      0.2205979979E-02

    ------------------------------------------------
       NWT REQUIRED            4 OUTER ITERATIONS 
       AND A TOTAL OF          7 INNER ITERATIONS.
    ------------------------------------------------

 NO OUTPUT CONTROL FOR STRESS PERIOD   47   TIME STEP    9
 
 SOLVING FOR HEAD 
                                                   Max.-Head-Change                         Max.-Flux-Residual
  Residual-Control   Outer-Iter.   Inner-Iter.     Column Row Layer    Maximum-Head-Change  Column Row Layer    Maximum-Flux-Residual          L2-NORM 
          0                 1           2             4    7     1       0.6865253007E-01       4    7    1         0.3610631418E+01      0.7574816377E+01
          0                 2           2             4    7     1      -0.6678090949E-02       4    7    1        -0.3610680186E+00      0.7574829293E+00
          0                 3           2             4    7     1       0.4547525341E-03       4    7    1         0.2527472607E-01      0.5302380708E-01
          0                 4           1             4    7     1      -0.1809503207E-04       4    7    1        -0.1033737956E-02      0.2168680782E-02

    ------------------------------------------------
       NWT REQUIRED            4 OUTER ITERATIONS 
       AND A TOTAL OF          7 INNER ITERATIONS.
    ------------------------------------------------

 NO OUTPUT CONTROL FOR STRESS PERIOD   47   TIME STEP   10
 
 SOLVING FOR HEAD 
                                                   Max.-Head-Change                         Max.-Flux-Residual
  Residual-Control   Outer-Iter.   Inner-Iter.     Column Row Layer    Maximum-Head-Change  Column Row Layer    Maximum-Flux-Residual          L2-NORM 
          0                 1           2             4    7     1       0.6781261127E-01       4    7    1         0.3566969566E+01      0.7448620977E+01
          0                 2           2             4    7     1      -0.6596389558E-02       4    7    1        -0.3567018193E+00      0.7448637347E+00
          0                 3           2             4    7     1       0.4491889740E-03       4    7    1         0.2496909212E-01      0.5214045789E-01
          0                 4           1             4    7     1      -0.1787365275E-04       4    7    1        -0.1021237509E-02      0.2132548921E-02

    ------------------------------------------------
       NWT REQUIRED            4 OUTER ITERATIONS 
       AND A TOTAL OF          7 INNER ITERATIONS.
    ------------------------------------------------

 NO OUTPUT CONTROL FOR STRESS PERIOD   47   TIME STEP   11
 
 SOLVING FOR HEAD 
                                                   Max.-Head-Change                         Max.-Flux-Residual
  Residual-Control   Outer-Iter.   Inner-Iter.     Column Row Layer    Maximum-Head-Change  Column Row Layer    Maximum-Flux-Residual          L2-NORM 
          0                 1           2             4    7     1       0.6697416702E-01       4    7    1         0.3523334715E+01      0.7326335555E+01
          0                 2           2             4    7     1      -0.6514831463E-02       4    7    1        -0.3523383109E+00      0.7326357112E+00
          0                 3           2             4    7     1       0.4436351736E-03       4    7    1         0.2466364663E-01      0.5128448975E-01
          0                 4           1             4    7     1      -0.1765266164E-04       4    7    1        -0.1008744769E-02      0.2097538023E-02

    ------------------------------------------------
       NWT REQUIRED            4 OUTER ITERATIONS 
       AND A TOTAL OF          7 INNER ITERATIONS.
    ------------------------------------------------

 NO OUTPUT CONTROL FOR STRESS PERIOD   47   TIME STEP   12
 
 SOLVING FOR HEAD 
                                                   Max.-Head-Change                         Max.-Flux-Residual
  Residual-Control   Outer-Iter.   Inner-Iter.     Column Row Layer    Maximum-Head-Change  Column Row Layer    Maximum-Flux-Residual          L2-NORM 
          0                 1           2             4    7     1       0.6613806946E-01       4    7    1         0.3479776286E+01      0.7207757442E+01
          0                 2           2             4    7     1      -0.6433501513E-02       4    7    1        -0.3479824365E+00      0.7207779568E+00
          0                 3           2             4    7     1       0.4380969100E-03       4    7    1         0.2435873559E-01      0.5045444416E-01
          0                 4           1             4    7     1      -0.1743228922E-04       4    7    1        -0.9962738932E-03      0.2063588244E-02

    ------------------------------------------------
       NWT REQUIRED            4 OUTER ITERATIONS 
       AND A TOTAL OF          7 INNER ITERATIONS.
    ------------------------------------------------

 NO OUTPUT CONTROL FOR STRESS PERIOD   47   TIME STEP   13
 
 SOLVING FOR HEAD 
                                                   Max.-Head-Change                         Max.-Flux-Residual
  Residual-Control   Outer-Iter.   Inner-Iter.     Column Row Layer    Maximum-Head-Change  Column Row Layer    Maximum-Flux-Residual          L2-NORM 
          0                 1           2             4    7     1       0.6530499060E-01       4    7    1         0.3436332268E+01      0.7092709649E+01
          0                 2           2             4    7     1      -0.6352465092E-02       4    7    1        -0.3436379959E+00      0.7092731889E+00
          0                 3           2             4    7     1       0.4325786354E-03       4    7    1         0.2405462497E-01      0.4964911137E-01
          0                 4           1             4    7     1      -0.1721271176E-04       4    7    1        -0.9838357339E-03      0.2030653021E-02

    ------------------------------------------------
       NWT REQUIRED            4 OUTER ITERATIONS 
       AND A TOTAL OF          7 INNER ITERATIONS.
    ------------------------------------------------

 NO OUTPUT CONTROL FOR STRESS PERIOD   47   TIME STEP   14
 
 SOLVING FOR HEAD 
                                                   Max.-Head-Change                         Max.-Flux-Residual
  Residual-Control   Outer-Iter.   Inner-Iter.     Column Row Layer    Maximum-Head-Change  Column Row Layer    Maximum-Flux-Residual          L2-NORM 
          0                 1           2             4    7     1       0.6447580532E-01       4    7    1         0.3393051966E+01      0.6981024576E+01
          0                 2           2             4    7     1      -0.6271807315E-02       4    7    1        -0.3393099204E+00      0.6981046680E+00
          0                 3           2             4    7     1       0.4270861461E-03       4    7    1         0.2375165999E-01      0.4886729952E-01
          0                 4           1             4    7     1      -0.1699416054E-04       4    7    1        -0.9714444461E-03      0.1998671676E-02

    ------------------------------------------------
       NWT REQUIRED            4 OUTER ITERATIONS 
       AND A TOTAL OF          7 INNER ITERATIONS.
    ------------------------------------------------

 NO OUTPUT CONTROL FOR STRESS PERIOD   47   TIME STEP   15
 
 SOLVING FOR HEAD 
                                                   Max.-Head-Change                         Max.-Flux-Residual
  Residual-Control   Outer-Iter.   Inner-Iter.     Column Row Layer    Maximum-Head-Change  Column Row Layer    Maximum-Flux-Residual          L2-NORM 
          0                 1           2             4    7     1       0.6365105213E-01       4    7    1         0.3349966277E+01      0.6872539438E+01
          0                 2           2             4    7     1      -0.6191580575E-02       4    7    1        -0.3350013006E+00      0.6872561810E+00
          0                 3           2             4    7     1       0.4216230100E-03       4    7    1         0.2345005695E-01      0.4810791786E-01
          0                 4           1             4    7     1      -0.1677677707E-04       4    7    1        -0.9591088765E-03      0.1967702728E-02

    ------------------------------------------------
       NWT REQUIRED            4 OUTER ITERATIONS 
       AND A TOTAL OF          7 INNER ITERATIONS.
    ------------------------------------------------

 NO OUTPUT CONTROL FOR STRESS PERIOD   47   TIME STEP   16
 
 SOLVING FOR HEAD 
                                                   Max.-Head-Change                         Max.-Flux-Residual
  Residual-Control   Outer-Iter.   Inner-Iter.     Column Row Layer    Maximum-Head-Change  Column Row Layer    Maximum-Flux-Residual          L2-NORM 
          0                 1           2             4    7     1       0.6283148252E-01       4    7    1         0.3307117589E+01      0.6767119891E+01
          0                 2           2             4    7     1      -0.6111857984E-02       4    7    1        -0.3307163759E+00      0.6767142250E+00
          0                 3           2             4    7     1       0.4161942054E-03       4    7    1         0.2315011264E-01      0.4736997515E-01
          0                 4           1             4    7     1      -0.1656076005E-04       4    7    1        -0.9468411365E-03      0.1937434273E-02

    ------------------------------------------------
       NWT REQUIRED            4 OUTER ITERATIONS 
       AND A TOTAL OF          7 INNER ITERATIONS.
    ------------------------------------------------

 NO OUTPUT CONTROL FOR STRESS PERIOD   47   TIME STEP   17
 
 SOLVING FOR HEAD 
                                                   Max.-Head-Change                         Max.-Flux-Residual
  Residual-Control   Outer-Iter.   Inner-Iter.     Column Row Layer    Maximum-Head-Change  Column Row Layer    Maximum-Flux-Residual          L2-NORM 
          0                 1           2             4    7     1       0.6201765585E-01       4    7    1         0.3264537634E+01      0.6664621492E+01
          0                 2           2             4    7     1      -0.6032693960E-02       4    7    1        -0.3264583203E+00      0.6664644072E+00
          0                 3           2             4    7     1       0.4108034373E-03       4    7    1         0.2285204918E-01      0.4665248720E-01
          0                 4           1             4    7     1      -0.1634625637E-04       4    7    1        -0.9346503236E-03      0.1908088322E-02

    ------------------------------------------------
       NWT REQUIRED            4 OUTER ITERATIONS 
       AND A TOTAL OF          7 INNER ITERATIONS.
    ------------------------------------------------

 NO OUTPUT CONTROL FOR STRESS PERIOD   47   TIME STEP   18
 
 SOLVING FOR HEAD 
                                                   Max.-Head-Change                         Max.-Flux-Residual
  Residual-Control   Outer-Iter.   Inner-Iter.     Column Row Layer    Maximum-Head-Change  Column Row Layer    Maximum-Flux-Residual          L2-NORM 
          0                 1           2             4    7     1       0.6121007364E-01       4    7    1         0.3222255414E+01      0.6564919001E+01
          0                 2           2             4    7     1      -0.5954137298E-02       4    7    1        -0.3222300346E+00      0.6564941988E+00
          0                 3           2             4    7     1       0.4054540286E-03       4    7    1         0.2255606965E-01      0.4595457602E-01
          0                 4           1             4    7     1      -0.1613339787E-04       4    7    1        -0.9225447159E-03      0.1879545810E-02

    ------------------------------------------------
       NWT REQUIRED            4 OUTER ITERATIONS 
       AND A TOTAL OF          7 INNER ITERATIONS.
    ------------------------------------------------

 NO OUTPUT CONTROL FOR STRESS PERIOD   47   TIME STEP   19
 
 SOLVING FOR HEAD 
                                                   Max.-Head-Change                         Max.-Flux-Residual
  Residual-Control   Outer-Iter.   Inner-Iter.     Column Row Layer    Maximum-Head-Change  Column Row Layer    Maximum-Flux-Residual          L2-NORM 
          0                 1           2             4    7     1       0.6040905922E-01       4    7    1         0.3180289694E+01      0.6467885507E+01
          0                 2           2             4    7     1      -0.5881992316E-02       4    7    1        -0.3184675530E+00      0.6468320334E+00
          0                 3           2             4    7     1       0.4005411909E-03       4    7    1         0.2229269361E-01      0.4527826053E-01
          0                 4           1             4    7     1      -0.1593791144E-04       4    7    1        -0.9117726331E-03      0.1851997679E-02

    ------------------------------------------------
       NWT REQUIRED            4 OUTER ITERATIONS 
       AND A TOTAL OF          7 INNER ITERATIONS.
    ------------------------------------------------

 NO OUTPUT CONTROL FOR STRESS PERIOD   47   TIME STEP   20
 
 SOLVING FOR HEAD 
                                                   Max.-Head-Change                         Max.-Flux-Residual
  Residual-Control   Outer-Iter.   Inner-Iter.     Column Row Layer    Maximum-Head-Change  Column Row Layer    Maximum-Flux-Residual          L2-NORM 
          0                 1           2             4    7     1       0.5959059780E-01       4    7    1         0.3138371245E+01      0.6373391136E+01
          0                 2           2             4    7     1      -0.5796608093E-02       4    7    1        -0.3138417399E+00      0.6373414916E+00
          0                 3           2             4    7     1       0.3947268580E-03       4    7    1         0.2196888761E-01      0.4461388110E-01
          0                 4           1             4    7     1      -0.1570655424E-04       4    7    1        -0.8985289599E-03      0.1824708873E-02

    ------------------------------------------------
       NWT REQUIRED            4 OUTER ITERATIONS 
       AND A TOTAL OF          7 INNER ITERATIONS.
    ------------------------------------------------

 NO OUTPUT CONTROL FOR STRESS PERIOD   47   TIME STEP   21
 
 SOLVING FOR HEAD 
                                                   Max.-Head-Change                         Max.-Flux-Residual
  Residual-Control   Outer-Iter.   Inner-Iter.     Column Row Layer    Maximum-Head-Change  Column Row Layer    Maximum-Flux-Residual          L2-NORM 
          0                 1           2             4    7     1       0.5878677439E-01       4    7    1         0.3096156135E+01      0.6281287875E+01
          0                 2           2             4    7     1      -0.5718476588E-02       4    7    1        -0.3096201468E+00      0.6281562495E+00
          0                 3           2             4    7     1       0.3894064034E-03       4    7    1         0.2167337676E-01      0.4397091214E-01
          0                 4           1             4    7     1      -0.1549484782E-04       4    7    1        -0.8864425290E-03      0.1798413896E-02

    ------------------------------------------------
       NWT REQUIRED            4 OUTER ITERATIONS 
       AND A TOTAL OF          7 INNER ITERATIONS.
    ------------------------------------------------

 NO OUTPUT CONTROL FOR STRESS PERIOD   47   TIME STEP   22
 
 SOLVING FOR HEAD 
                                                   Max.-Head-Change                         Max.-Flux-Residual
  Residual-Control   Outer-Iter.   Inner-Iter.     Column Row Layer    Maximum-Head-Change  Column Row Layer    Maximum-Flux-Residual          L2-NORM 
          0                 1           2             4    7     1       0.5799155550E-01       4    7    1         0.3054382027E+01      0.6191509491E+01
          0                 2           2             4    7     1      -0.5641062521E-02       4    7    1        -0.3054426531E+00      0.6191532906E+00
          0                 3           2             4    7     1       0.3841348044E-03       4    7    1         0.2138095284E-01      0.4334070360E-01
          0                 4           1             4    7     1      -0.1528508660E-04       4    7    1        -0.8744823933E-03      0.1772636785E-02

    ------------------------------------------------
       NWT REQUIRED            4 OUTER ITERATIONS 
       AND A TOTAL OF          7 INNER ITERATIONS.
    ------------------------------------------------

 NO OUTPUT CONTROL FOR STRESS PERIOD   47   TIME STEP   23
 
 SOLVING FOR HEAD 
                                                   Max.-Head-Change                         Max.-Flux-Residual
  Residual-Control   Outer-Iter.   Inner-Iter.     Column Row Layer    Maximum-Head-Change  Column Row Layer    Maximum-Flux-Residual          L2-NORM 
          0                 1           2             4    7     1       0.5720564106E-01       4    7    1         0.3013074879E+01      0.6103984860E+01
          0                 2           2             4    7     1      -0.5564613240E-02       4    7    1        -0.3013118540E+00      0.6104007820E+00
          0                 3           2             4    7     1       0.3789289037E-03       4    7    1         0.2109179757E-01      0.4272802595E-01
          0                 4           1             4    7     1      -0.1507793866E-04       4    7    1        -0.8626559152E-03      0.1747575456E-02

    ------------------------------------------------
       NWT REQUIRED            4 OUTER ITERATIONS 
       AND A TOTAL OF          7 INNER ITERATIONS.
    ------------------------------------------------

 NO OUTPUT CONTROL FOR STRESS PERIOD   47   TIME STEP   24
 
 SOLVING FOR HEAD 
                                                   Max.-Head-Change                         Max.-Flux-Residual
  Residual-Control   Outer-Iter.   Inner-Iter.     Column Row Layer    Maximum-Head-Change  Column Row Layer    Maximum-Flux-Residual          L2-NORM 
          0                 1           2             4    7     1       0.5642903849E-01       4    7    1         0.2972239702E+01      0.6018635385E+01
          0                 2           2             4    7     1      -0.5489069738E-02       4    7    1        -0.2972282511E+00      0.6018657960E+00
          0                 3           2             4    7     1       0.3737846832E-03       4    7    1         0.2080594604E-01      0.4213058121E-01
          0                 4           1             4    7     1      -0.1487324524E-04       4    7    1        -0.8509645670E-03      0.1723143387E-02

    ------------------------------------------------
       NWT REQUIRED            4 OUTER ITERATIONS 
       AND A TOTAL OF          7 INNER ITERATIONS.
    ------------------------------------------------

 NO OUTPUT CONTROL FOR STRESS PERIOD   47   TIME STEP   25
 
 SOLVING FOR HEAD 
                                                   Max.-Head-Change                         Max.-Flux-Residual
  Residual-Control   Outer-Iter.   Inner-Iter.     Column Row Layer    Maximum-Head-Change  Column Row Layer    Maximum-Flux-Residual          L2-NORM 
          0                 1           2             4    7     1       0.5566192519E-01       4    7    1         0.2931887309E+01      0.5935381068E+01
          0                 2           2             4    7     1      -0.5414449274E-02       4    7    1        -0.2931929260E+00      0.5935403282E+00
          0                 3           2             4    7     1       0.3687033190E-03       4    7    1         0.2052347399E-01      0.4154779648E-01
          0                 4           1             4    7     1      -0.1467105296E-04       4    7    1        -0.8394114420E-03      0.1699307600E-02

    ------------------------------------------------
       NWT REQUIRED            4 OUTER ITERATIONS 
       AND A TOTAL OF          7 INNER ITERATIONS.
    ------------------------------------------------

 NO OUTPUT CONTROL FOR STRESS PERIOD   47   TIME STEP   26
 
 SOLVING FOR HEAD 
                                                   Max.-Head-Change                         Max.-Flux-Residual
  Residual-Control   Outer-Iter.   Inner-Iter.     Column Row Layer    Maximum-Head-Change  Column Row Layer    Maximum-Flux-Residual          L2-NORM 
          0                 1           2             4    7     1       0.5490471668E-01       4    7    1         0.2892041385E+01      0.5854154727E+01
          0                 2           2             4    7     1      -0.5340792273E-02       4    7    1        -0.2892082476E+00      0.5854176671E+00
          0                 3           2             4    7     1       0.3636875627E-03       4    7    1         0.2024454721E-01      0.4097920995E-01
          0                 4           1             4    7     1      -0.1447147144E-04       4    7    1        -0.8280033123E-03      0.1676051652E-02

    ------------------------------------------------
       NWT REQUIRED            4 OUTER ITERATIONS 
       AND A TOTAL OF          7 INNER ITERATIONS.
    ------------------------------------------------

 NO OUTPUT CONTROL FOR STRESS PERIOD   47   TIME STEP   27
 
 SOLVING FOR HEAD 
                                                   Max.-Head-Change                         Max.-Flux-Residual
  Residual-Control   Outer-Iter.   Inner-Iter.     Column Row Layer    Maximum-Head-Change  Column Row Layer    Maximum-Flux-Residual          L2-NORM 
          0                 1           2             4    7     1       0.5415712096E-01       4    7    1         0.2852687255E+01      0.5774857047E+01
          0                 2           2             4    7     1      -0.5268070333E-02       4    7    1        -0.2852727485E+00      0.5774878335E+00
          0                 3           2             4    7     1       0.3587354806E-03       4    7    1         0.1996906296E-01      0.4042412255E-01
          0                 4           1             4    7     1      -0.1427442341E-04       4    7    1        -0.8167360018E-03      0.1653349998E-02

    ------------------------------------------------
       NWT REQUIRED            4 OUTER ITERATIONS 
       AND A TOTAL OF          7 INNER ITERATIONS.
    ------------------------------------------------

 NO OUTPUT CONTROL FOR STRESS PERIOD   47   TIME STEP   28
 
 SOLVING FOR HEAD 
                                                   Max.-Head-Change                         Max.-Flux-Residual
  Residual-Control   Outer-Iter.   Inner-Iter.     Column Row Layer    Maximum-Head-Change  Column Row Layer    Maximum-Flux-Residual          L2-NORM 
          0                 1           2             4    7     1       0.5341964563E-01       4    7    1         0.2813853247E+01      0.5697443050E+01
          0                 2           2             4    7     1      -0.5196332832E-02       4    7    1        -0.2813892618E+00      0.5697463888E+00
          0                 3           2             4    7     1       0.3538504348E-03       4    7    1         0.1969721958E-01      0.3988222049E-01
          0                 4           1             4    7     1      -0.1408004278E-04       4    7    1        -0.8056175818E-03      0.1631184700E-02

    ------------------------------------------------
       NWT REQUIRED            4 OUTER ITERATIONS 
       AND A TOTAL OF          7 INNER ITERATIONS.
    ------------------------------------------------

 NO OUTPUT CONTROL FOR STRESS PERIOD   47   TIME STEP   29
 
 SOLVING FOR HEAD 
                                                   Max.-Head-Change                         Max.-Flux-Residual
  Residual-Control   Outer-Iter.   Inner-Iter.     Column Row Layer    Maximum-Head-Change  Column Row Layer    Maximum-Flux-Residual          L2-NORM 
          0                 1           2             4    7     1       0.5269221642E-01       4    7    1         0.2775536700E+01      0.5621831861E+01
          0                 2           2             4    7     1      -0.5125572551E-02       4    7    1        -0.2775575216E+00      0.5621852208E+00
          0                 3           2             4    7     1       0.3490319343E-03       4    7    1         0.1942899847E-01      0.3935293466E-01
          0                 4           1             4    7     1      -0.1388830997E-04       4    7    1        -0.7946473127E-03      0.1609547979E-02

    ------------------------------------------------
       NWT REQUIRED            4 OUTER ITERATIONS 
       AND A TOTAL OF          7 INNER ITERATIONS.
    ------------------------------------------------

 NO OUTPUT CONTROL FOR STRESS PERIOD   47   TIME STEP   30



 STREAM LISTING     PERIOD     47   STEP       30

 LAYER ROW COL. STREAM  RCH.  FLOW INTO     FLOW TO   FLOW OUT OF   OVRLND.     DIRECT     STREAM       STREAM     STREAM     STREAM   STREAMBED  STREAMBED
                SEG.NO.  NO.  STRM. RCH.    AQUIFER    STRM. RCH.    RUNOFF     PRECIP       ET          HEAD       DEPTH      WIDTH   CONDCTNC.   GRADIENT

   1    1    1     1     1    1.9000E+01  2.1427E-01   1.8786E+01  0.000E+00  0.000E+00  0.000E+00  1.09413E+03  1.082E+00  1.166E+01  5.249E-02  1.361E+00
   1    2    2     1     2    1.8786E+01  3.3054E-01   1.8455E+01  0.000E+00  0.000E+00  0.000E+00  1.08914E+03  1.077E+00  1.158E+01  8.107E-02  1.359E+00
   1    3    3     1     3    1.8455E+01  2.8064E-01   1.8175E+01  0.000E+00  0.000E+00  0.000E+00  1.08349E+03  1.072E+00  1.149E+01  6.892E-02  1.357E+00
   1    3    4     1     4    1.8175E+01  2.5740E-01   1.7917E+01  0.000E+00  0.000E+00  0.000E+00  1.07848E+03  1.068E+00  1.140E+01  6.328E-02  1.356E+00
   1    4    5     2     1    1.5917E+01  3.0542E-01   1.5612E+01  0.000E+00  0.000E+00  0.000E+00  1.07285E+03  9.157E-01  1.200E+01  7.800E-02  1.305E+00
   1    5    6     2     2    1.5612E+01  2.3438E-01   1.5377E+01  0.000E+00  0.000E+00  0.000E+00  1.06742E+03  9.063E-01  1.200E+01  6.000E-02  1.302E+00
   1    6    6     2     3    1.5377E+01  2.3388E-01   1.5143E+01  0.000E+00  0.000E+00  0.000E+00  1.06269E+03  8.980E-01  1.200E+01  6.000E-02  1.299E+00
   1    7    6     2     4    1.5143E+01  2.3338E-01   1.4910E+01  0.000E+00  0.000E+00  0.000E+00  1.05797E+03  8.897E-01  1.200E+01  6.000E-02  1.297E+00
   1    8    6     2     5    1.4910E+01  2.3289E-01   1.4677E+01  0.000E+00  0.000E+00  0.000E+00  1.05324E+03  8.814E-01  1.200E+01  6.000E-02  1.294E+00
   1    3    5     3     1    2.0000E+00  2.8252E-01   1.7175E+00  0.000E+00  0.000E+00  0.000E+00  1.07555E+03  1.909E+00  9.636E+00  7.227E-02  1.955E+00
   1    3    6     3     2    1.7175E+00  2.4905E-01   1.4684E+00  0.000E+00  0.000E+00  0.000E+00  1.07264E+03  1.727E+00  8.909E+00  6.682E-02  1.864E+00
   1    3    7     3     3    1.4684E+00  1.9718E-01   1.2712E+00  0.000E+00  0.000E+00  0.000E+00  1.06987E+03  1.555E+00  8.218E+00  5.547E-02  1.777E+00
   1    4    8     3     4    1.2712E+00  2.2567E-01   1.0456E+00  0.000E+00  0.000E+00  0.000E+00  1.06682E+03  1.364E+00  7.455E+00  6.709E-02  1.682E+00
   1    5    8     3     5    1.0456E+00  1.5790E-01   8.8768E-01  0.000E+00  0.000E+00  0.000E+00  1.06362E+03  1.164E+00  6.655E+00  4.991E-02  1.582E+00
   1    6    8     3     6    8.8768E-01  5.5980E-02   8.3170E-01  0.000E+00  0.000E+00  0.000E+00  1.06158E+03  1.036E+00  6.145E+00  1.844E-02  1.518E+00
   1    5   10     4     1    1.0000E+01  9.0919E-02   9.9091E+00  0.000E+00  0.000E+00  0.000E+00  1.07836E+03  6.368E-01  1.000E+01  2.500E-02  1.212E+00
   1    5    9     4     2    9.9091E+00  1.8158E-01   9.7275E+00  0.000E+00  0.000E+00  0.000E+00  1.07154E+03  6.315E-01  1.000E+01  5.000E-02  1.211E+00
   1    6    8     4     3    9.7275E+00  1.2689E-01   9.6006E+00  0.000E+00  0.000E+00  0.000E+00  1.06381E+03  6.256E-01  1.000E+01  3.500E-02  1.209E+00
   1    6    8     5     1    1.0432E+01  2.2686E-01   1.0205E+01  0.000E+00  0.000E+00  0.000E+00  1.05868E+03  6.790E-01  1.542E+01  6.166E-02  1.226E+00
   1    7    7     5     2    1.0205E+01  2.7894E-01   9.9265E+00  0.000E+00  0.000E+00  0.000E+00  1.05417E+03  6.732E-01  1.519E+01  7.594E-02  1.224E+00
   1    8    7     5     3    9.9265E+00  1.9221E-01   9.7343E+00  0.000E+00  0.000E+00  0.000E+00  1.04992E+03  6.676E-01  1.497E+01  5.241E-02  1.223E+00
   1    8    6     5     4    9.7343E+00  1.3577E-01   9.5985E+00  0.000E+00  0.000E+00  0.000E+00  1.04691E+03  6.637E-01  1.482E+01  3.706E-02  1.221E+00
   1    9    6     6     1    2.4276E+01  2.5176E-01   2.4024E+01  0.000E+00  0.000E+00  0.000E+00  1.04392E+03  1.196E+00  1.200E+01  6.000E-02  1.399E+00
   1   10    7     6     2    2.4024E+01  2.5131E-01   2.3773E+01  0.000E+00  0.000E+00  0.000E+00  1.03937E+03  1.188E+00  1.200E+01  6.000E-02  1.396E+00
   1   11    7     6     3    2.3773E+01  2.5086E-01   2.3522E+01  0.000E+00  0.000E+00  0.000E+00  1.03482E+03  1.181E+00  1.200E+01  6.000E-02  1.394E+00
   1   12    7     6     4    2.3522E+01  2.5041E-01   2.3271E+01  0.000E+00  0.000E+00  0.000E+00  1.03026E+03  1.173E+00  1.200E+01  6.000E-02  1.391E+00
   1   13    7     6     5    2.3271E+01  1.1923E-02   2.3259E+01  0.000E+00  0.000E+00  0.000E+00  1.02708E+03  1.169E+00  1.200E+01  2.400E-02  1.656E-01
   1   14    9     7     1    1.5000E+02  1.3790E+00   1.4862E+02  0.000E+00  0.000E+00  0.000E+00  1.03987E+03  2.288E+00  5.529E+01  5.593E-01  8.218E-01
   1   13    8     7     2    1.4862E+02  1.9888E+00   1.4663E+02  0.000E+00  0.000E+00  0.000E+00  1.03478E+03  2.279E+00  5.525E+01  6.147E-01  1.078E+00
   1   13    7     7     3    1.4663E+02  1.7344E+00   1.4490E+02  0.000E+00  0.000E+00  0.000E+00  1.02969E+03  2.269E+00  5.521E+01  5.584E-01  1.035E+00
   1   13    6     8     1    1.6816E+02  1.1652E+00   1.6699E+02  0.000E+00  0.000E+00  0.000E+00  1.02481E+03  2.936E+00  4.258E+01  4.339E-01  8.952E-01
   1   13    5     8     2    1.6699E+02  4.0012E-01   1.6659E+02  0.000E+00  0.000E+00  0.000E+00  1.01856E+03  2.931E+00  4.250E+01  4.331E-01  3.079E-01
   1   13    4     8     3    1.6659E+02 -1.6823E+00   1.6827E+02  0.000E+00  0.000E+00  0.000E+00  1.01231E+03  2.935E+00  4.256E+01  4.337E+00 -1.293E-01
   1   13    3     8     4    1.6827E+02 -3.2827E+00   1.7156E+02  0.000E+00  0.000E+00  0.000E+00  1.00608E+03  2.952E+00  4.280E+01  4.361E+00 -2.509E-01
   1   13    2     8     5    1.7156E+02 -2.4838E+00   1.7404E+02  0.000E+00  0.000E+00  0.000E+00  9.99845E+02  2.970E+00  4.307E+01  4.389E+00 -1.886E-01
   1   13    1     8     6    1.7404E+02 -1.9573E+00   1.7600E+02  0.000E+00  0.000E+00  0.000E+00  9.94860E+02  2.985E+00  4.328E+01  2.646E+00 -2.466E-01





UNSATURATED ZONE PACKAGE VOLUMETRIC BUDGET FOR  TIME STEP    30 STRESS PERIOD   47
  ------------------------------------------------------------------------------



     CUMULATIVE VOLUMES      L**3       RATES FOR THIS TIME STEP      L**3/T
     ------------------                 ------------------------

           IN:                                      IN:
           ---                                      ---
        INFILTRATION =  2126100274.2278          INFILTRATION =           4.4075

          OUT:                                     OUT:
          ----                                     ----
              UZF ET =  1997304622.4381                UZF ET =           3.7800
        UZF RECHARGE =     1377622.8818          UZF RECHARGE =       0.0000E+00

            IN - OUT =   127418028.9079              IN - OUT =           0.6275

          STORAGE:                                 STORAGE:
          --------                                 --------
      STORAGE CHANGE =   127419651.1955        STORAGE CHANGE =           0.6275

 PERCENT DISCREPANCY IS DIFFERENCE BETWEEN IN-OUT MINUS CHANGE IN STORAGE
 DIVIDED BY THE AVERAGE OF IN AND OUT TIMES 100

 PERCENT DISCREPANCY =          -0.00     PERCENT DISCREPANCY =           0.00






1
  VOLUMETRIC BUDGET FOR ENTIRE MODEL AT END OF TIME STEP   30, STRESS PERIOD  47
  ------------------------------------------------------------------------------

     CUMULATIVE VOLUMES      L**3       RATES FOR THIS TIME STEP      L**3/T
     ------------------                 ------------------------

           IN:                                      IN:
           ---                                      ---
               AG WELLS  =  1592807680.0000                 AG WELLS  =           0.0000
      DIVERSION SEGMENTS =           0.0000        DIVERSION SEGMENTS =           0.0000
           GW IRRIGATION =           0.0000             GW IRRIGATION =           0.0000
           SW IRRIGATION =           0.0000             SW IRRIGATION =           0.0000
        SYSTEM LOSSES GW =           0.0000          SYSTEM LOSSES GW =           0.0000
        SYSTEM LOSSES SW =           0.0000          SYSTEM LOSSES SW =           0.0000

                TOTAL IN =  1592807680.0000                  TOTAL IN =           0.0000

          OUT:                                     OUT:
          ----                                     ----
               AG WELLS  =           0.0000                 AG WELLS  =           0.0000
      DIVERSION SEGMENTS =           0.0000        DIVERSION SEGMENTS =           0.0000
           GW IRRIGATION =  1592807680.0000             GW IRRIGATION =           0.0000
           SW IRRIGATION =           0.0000             SW IRRIGATION =           0.0000
        SYSTEM LOSSES GW =           0.0000          SYSTEM LOSSES GW =           0.0000
        SYSTEM LOSSES SW =           0.0000          SYSTEM LOSSES SW =           0.0000

               TOTAL OUT =  1592807680.0000                 TOTAL OUT =           0.0000

                IN - OUT =           0.0000                  IN - OUT =           0.0000

     PERCENT DISCREPANCY =           0.00         PERCENT DISCREPANCY =           0.00



1
  VOLUMETRIC BUDGET FOR ENTIRE MODEL AT END OF TIME STEP   30, STRESS PERIOD  47
  ------------------------------------------------------------------------------

     CUMULATIVE VOLUMES      L**3       RATES FOR THIS TIME STEP      L**3/T
     ------------------                 ------------------------

           IN:                                      IN:
           ---                                      ---
             STORAGE     =  2125718656.0000               STORAGE     =          12.0990
       CONSTANT HEAD     =           0.0000         CONSTANT HEAD     =           0.0000
     HEAD DEP BOUNDS     =    34662428.0000       HEAD DEP BOUNDS     =           0.2887
      STREAM LEAKAGE     =  1483390336.0000        STREAM LEAKAGE     =          12.4081
        UZF RECHARGE     =     1377623.2500          UZF RECHARGE     =           0.0000
               GW ET     =           0.0000                 GW ET     =           0.0000
     SURFACE LEAKAGE     =           0.0000       SURFACE LEAKAGE     =           0.0000
           AG WELLS      =           0.0000             AG WELLS      =           0.0000

                TOTAL IN =  3645148928.0000                  TOTAL IN =          24.7958

          OUT:                                     OUT:
          ----                                     ----
             STORAGE     =   775148288.0000               STORAGE     =          15.1009
       CONSTANT HEAD     =           0.0000         CONSTANT HEAD     =           0.0000
     HEAD DEP BOUNDS     =    35311312.0000       HEAD DEP BOUNDS     =           0.2888
      STREAM LEAKAGE     =  1224565632.0000        STREAM LEAKAGE     =           9.4061
        UZF RECHARGE     =           0.0000          UZF RECHARGE     =           0.0000
               GW ET     =    17319432.0000                 GW ET     =           0.0000
     SURFACE LEAKAGE     =           0.0000       SURFACE LEAKAGE     =           0.0000
           AG WELLS      =  1592807680.0000             AG WELLS      =           0.0000

               TOTAL OUT =  3645152256.0000                 TOTAL OUT =          24.7958

                IN - OUT =       -3328.0000                  IN - OUT =       1.5259E-05

     PERCENT DISCREPANCY =          -0.00         PERCENT DISCREPANCY =           0.00






         TIME SUMMARY AT END OF TIME STEP   30 IN STRESS PERIOD   47
                    SECONDS     MINUTES      HOURS       DAYS        YEARS
                    -----------------------------------------------------------
   TIME STEP LENGTH  87667.      1461.1      24.352      1.0147     2.77799E-03
 STRESS PERIOD TIME 2.63000E+06  43833.      730.56      30.440     8.33397E-02
         TOTAL TIME 1.21065E+08 2.01775E+06  33629.      1401.2      3.8363    
1
1
                            STRESS PERIOD NO.   48, LENGTH =   2630000.    
                            -----------------------------------------------

                              NUMBER OF TIME STEPS =    30

                               MULTIPLIER FOR DELT =     1.000

                            INITIAL TIME STEP SIZE =   87666.66    

 REUSING NON-PARAMETER GHB CELLS FROM LAST STRESS PERIOD

      2 GHB CELLS

 REUSING STREAM SEGMENT DATA FROM LAST STRESS PERIOD



            AREAL INFILTRATION RATE
 READING ON UNIT   19 WITH FORMAT: (10F4.0)            

            1           2           3           4           5           6           7           8           9          10
 ........................................................................................................................
   1   1.2000E-09   0.000       0.000       0.000       0.000       0.000       0.000       0.000       0.000       0.000    
   2   2.1000E-09  2.0000E-09  8.0000E-10  8.5000E-09   0.000       0.000       0.000       0.000       0.000       0.000    
   3   5.0000E-10  1.1000E-09  8.8000E-09  5.5000E-09   0.000       0.000       0.000       0.000       0.000       0.000    
   4   8.5000E-09  1.1000E-09  1.1000E-09  1.1000E-09  2.0000E-09   0.000       0.000       0.000       0.000       0.000    
   5   8.5000E-09  1.1000E-09  1.1000E-09  1.1000E-09  1.1000E-09   0.000       0.000       0.000       0.000       0.000    
   6   8.5000E-09  5.2000E-09  2.1000E-09  1.1000E-09  1.5000E-09   0.000       0.000       0.000       0.000       0.000    
   7   8.5000E-09  5.2000E-09  2.1000E-09  1.2000E-09  2.0000E-09   0.000       0.000       0.000       0.000       0.000    
   8   5.0000E-10  5.2000E-09  2.1000E-09  1.2000E-09  5.0000E-09   0.000       0.000       0.000       0.000       0.000    
   9   5.0000E-10  5.2000E-09  2.1000E-09  1.2000E-09  5.0000E-09   0.000       0.000       0.000       0.000       0.000    
  10   5.0000E-10  5.2000E-09  2.1000E-09  1.2000E-09  5.8000E-09   0.000       0.000       0.000       0.000       0.000    
  11   1.0000E-10  1.1000E-09  1.1000E-09  1.2000E-09  5.0000E-09   0.000       0.000       0.000       0.000       0.000    
  12   1.1000E-09  1.1000E-09  1.1000E-09  1.1000E-09  2.0000E-09   0.000       0.000       0.000       0.000       0.000    
  13   1.1000E-09  2.2000E-09  2.2000E-09  2.1000E-09  1.0000E-09   0.000       0.000       0.000       0.000       0.000    
  14   2.0000E-10  5.5000E-09  5.5000E-09  5.2000E-09  1.0000E-09   0.000       0.000       0.000       0.000       0.000    
  15    0.000      8.8000E-09  8.8000E-09   0.000       0.000       0.000       0.000       0.000       0.000       0.000    

                  ET RATE =  5.000000E-10

 USING ET EXTINCTION DEPTH FROM PREVIOUS STRESS PERIOD. CURRENT PERIOD IS:      48

 USING EXTINCTION WATER CONTENT FROM PREVIOUS STRESS PERIOD. CURRENT PERIOD IS:      48

 USING AIR ENTRY PRESSURE FROM PREVIOUS STRESS PERIOD. CURRENT PERIOD IS:      48

 USING ROOT PRESSURE HEAD FROM PREVIOUS STRESS PERIOD. CURRENT PERIOD IS:      48

 USING ROOT ACTIVITY FROM PREVIOUS STRESS PERIOD. CURRENT PERIOD IS:      48

 PROCESSING AG STRESS PERIOD DATA

 READING AG STRESS PERIOD DATA

 READING IRRIGATION WELL

 END PROCESSING AG STRESS PERIOD DATA OPTIONS
 
 SOLVING FOR HEAD 
                                                   Max.-Head-Change                         Max.-Flux-Residual
  Residual-Control   Outer-Iter.   Inner-Iter.     Column Row Layer    Maximum-Head-Change  Column Row Layer    Maximum-Flux-Residual          L2-NORM 
          0                 1           2             4    7     1       0.5197475209E-01       4    7    1         0.2737733763E+01      0.5547969139E+01
          0                 2           2             4    7     1      -0.5055781586E-02       4    7    1        -0.2737771428E+00      0.5547988967E+00
          0                 3           2             4    7     1       0.3442794406E-03       4    7    1         0.1916437264E-01      0.3883589172E-01
          0                 4           1             4    7     1      -0.1369920367E-04       4    7    1        -0.7838241004E-03      0.1588391395E-02

    ------------------------------------------------
       NWT REQUIRED            4 OUTER ITERATIONS 
       AND A TOTAL OF          7 INNER ITERATIONS.
    ------------------------------------------------

 NO OUTPUT CONTROL FOR STRESS PERIOD   48   TIME STEP    1
 
 SOLVING FOR HEAD 
                                                   Max.-Head-Change                         Max.-Flux-Residual
  Residual-Control   Outer-Iter.   Inner-Iter.     Column Row Layer    Maximum-Head-Change  Column Row Layer    Maximum-Flux-Residual          L2-NORM 
          0                 1           2             4    7     1       0.5126768635E-01       4    7    1         0.2700469213E+01      0.5475790035E+01
          0                 2           2             4    7     1      -0.4987002133E-02       4    7    1        -0.2700506036E+00      0.5475809330E+00
          0                 3           2             4    7     1       0.3395958268E-03       4    7    1         0.1890351557E-01      0.3833063005E-01
          0                 4           1             4    7     1      -0.1351283834E-04       4    7    1        -0.7731550327E-03      0.1567722631E-02

    ------------------------------------------------
       NWT REQUIRED            4 OUTER ITERATIONS 
       AND A TOTAL OF          7 INNER ITERATIONS.
    ------------------------------------------------

 NO OUTPUT CONTROL FOR STRESS PERIOD   48   TIME STEP    2
 
 SOLVING FOR HEAD 
                                                   Max.-Head-Change                         Max.-Flux-Residual
  Residual-Control   Outer-Iter.   Inner-Iter.     Column Row Layer    Maximum-Head-Change  Column Row Layer    Maximum-Flux-Residual          L2-NORM 
          0                 1           2             4    7     1       0.5057062010E-01       4    7    1         0.2663722052E+01      0.5405237453E+01
          0                 2           2             4    7     1      -0.4919195369E-02       4    7    1        -0.2663758039E+00      0.5405256284E+00
          0                 3           2             4    7     1       0.3349784495E-03       4    7    1         0.1864628028E-01      0.3783676172E-01
          0                 4           1             4    7     1      -0.1332910827E-04       4    7    1        -0.7626340823E-03      0.1547521863E-02

    ------------------------------------------------
       NWT REQUIRED            4 OUTER ITERATIONS 
       AND A TOTAL OF          7 INNER ITERATIONS.
    ------------------------------------------------

 NO OUTPUT CONTROL FOR STRESS PERIOD   48   TIME STEP    3
 
 SOLVING FOR HEAD 
                                                   Max.-Head-Change                         Max.-Flux-Residual
  Residual-Control   Outer-Iter.   Inner-Iter.     Column Row Layer    Maximum-Head-Change  Column Row Layer    Maximum-Flux-Residual          L2-NORM 
          0                 1           2             4    7     1       0.4988382440E-01       4    7    1         0.2627507829E+01      0.5336266040E+01
          0                 2           2             4    7     1      -0.4852387662E-02       4    7    1        -0.2627542989E+00      0.5336284397E+00
          0                 3           2             4    7     1       0.3304291041E-03       4    7    1         0.1839277560E-01      0.3735396311E-01
          0                 4           1             4    7     1      -0.1314808555E-04       4    7    1        -0.7522657179E-03      0.1527780731E-02

    ------------------------------------------------
       NWT REQUIRED            4 OUTER ITERATIONS 
       AND A TOTAL OF          7 INNER ITERATIONS.
    ------------------------------------------------

 NO OUTPUT CONTROL FOR STRESS PERIOD   48   TIME STEP    4
 
 SOLVING FOR HEAD 
                                                   Max.-Head-Change                         Max.-Flux-Residual
  Residual-Control   Outer-Iter.   Inner-Iter.     Column Row Layer    Maximum-Head-Change  Column Row Layer    Maximum-Flux-Residual          L2-NORM 
          0                 1           2             4    7     1       0.4920727090E-01       4    7    1         0.2591826102E+01      0.5268813445E+01
          0                 2           2             4    7     1      -0.4786576258E-02       4    7    1        -0.2591860447E+00      0.5268831309E+00
          0                 3           2             4    7     1       0.3259476034E-03       4    7    1         0.1814299848E-01      0.3688179244E-01
          0                 4           1             4    7     1      -0.1296976256E-04       4    7    1        -0.7420498207E-03      0.1508466194E-02

    ------------------------------------------------
       NWT REQUIRED            4 OUTER ITERATIONS 
       AND A TOTAL OF          7 INNER ITERATIONS.
    ------------------------------------------------

 NO OUTPUT CONTROL FOR STRESS PERIOD   48   TIME STEP    5
 
 SOLVING FOR HEAD 
                                                   Max.-Head-Change                         Max.-Flux-Residual
  Residual-Control   Outer-Iter.   Inner-Iter.     Column Row Layer    Maximum-Head-Change  Column Row Layer    Maximum-Flux-Residual          L2-NORM 
          0                 1           2             4    7     1       0.4854092484E-01       4    7    1         0.2556675401E+01      0.5202832396E+01
          0                 2           2             4    7     1      -0.4721757775E-02       4    7    1        -0.2556708942E+00      0.5202849790E+00
          0                 3           2             4    7     1       0.3215337163E-03       4    7    1         0.1789693858E-01      0.3641992019E-01
          0                 4           1             4    7     1      -0.1279412965E-04       4    7    1        -0.7319859540E-03      0.1489572637E-02

    ------------------------------------------------
       NWT REQUIRED            4 OUTER ITERATIONS 
       AND A TOTAL OF          7 INNER ITERATIONS.
    ------------------------------------------------

 NO OUTPUT CONTROL FOR STRESS PERIOD   48   TIME STEP    6
 
 SOLVING FOR HEAD 
                                                   Max.-Head-Change                         Max.-Flux-Residual
  Residual-Control   Outer-Iter.   Inner-Iter.     Column Row Layer    Maximum-Head-Change  Column Row Layer    Maximum-Flux-Residual          L2-NORM 
          0                 1           2             4    7     1       0.4788473304E-01       4    7    1         0.2522053925E+01      0.5138279420E+01
          0                 2           2             4    7     1      -0.4657927043E-02       4    7    1        -0.2522086674E+00      0.5138296331E+00
          0                 3           2             4    7     1       0.3171870916E-03       4    7    1         0.1765458335E-01      0.3596804759E-01
          0                 4           1             4    7     1      -0.1262117357E-04       4    7    1        -0.7220736106E-03      0.1471095047E-02

    ------------------------------------------------
       NWT REQUIRED            4 OUTER ITERATIONS 
       AND A TOTAL OF          7 INNER ITERATIONS.
    ------------------------------------------------

 NO OUTPUT CONTROL FOR STRESS PERIOD   48   TIME STEP    7
 
 SOLVING FOR HEAD 
                                                   Max.-Head-Change                         Max.-Flux-Residual
  Residual-Control   Outer-Iter.   Inner-Iter.     Column Row Layer    Maximum-Head-Change  Column Row Layer    Maximum-Flux-Residual          L2-NORM 
          0                 1           2             4    7     1       0.4723877324E-01       4    7    1         0.2487966170E+01      0.5075120039E+01
          0                 2           2             4    7     1      -0.4595091622E-02       4    7    1        -0.2487998139E+00      0.5075136358E+00
          0                 3           2             4    7     1       0.3129082435E-03       4    7    1         0.1741596424E-01      0.3552591398E-01
          0                 4           1             4    7     1      -0.1245091413E-04       4    7    1        -0.7123140729E-03      0.1453007043E-02

    ------------------------------------------------
       NWT REQUIRED            4 OUTER ITERATIONS 
       AND A TOTAL OF          7 INNER ITERATIONS.
    ------------------------------------------------

 NO OUTPUT CONTROL FOR STRESS PERIOD   48   TIME STEP    8
 
 SOLVING FOR HEAD 
                                                   Max.-Head-Change                         Max.-Flux-Residual
  Residual-Control   Outer-Iter.   Inner-Iter.     Column Row Layer    Maximum-Head-Change  Column Row Layer    Maximum-Flux-Residual          L2-NORM 
          0                 1           2             4    7     1       0.4660269885E-01       4    7    1         0.2454394406E+01      0.5013286773E+01
          0                 2           2             4    7     1      -0.4533217804E-02       4    7    1        -0.2454425608E+00      0.5013302526E+00
          0                 3           2             4    7     1       0.3086948768E-03       4    7    1         0.1718095715E-01      0.3509308244E-01
          0                 4           1             4    7     1      -0.1228326014E-04       4    7    1        -0.7027022618E-03      0.1435302694E-02

    ------------------------------------------------
       NWT REQUIRED            4 OUTER ITERATIONS 
       AND A TOTAL OF          7 INNER ITERATIONS.
    ------------------------------------------------

 NO OUTPUT CONTROL FOR STRESS PERIOD   48   TIME STEP    9
 
 SOLVING FOR HEAD 
                                                   Max.-Head-Change                         Max.-Flux-Residual
  Residual-Control   Outer-Iter.   Inner-Iter.     Column Row Layer    Maximum-Head-Change  Column Row Layer    Maximum-Flux-Residual          L2-NORM 
          0                 1           2             4    7     1       0.4597670729E-01       4    7    1         0.2421349680E+01      0.4952761825E+01
          0                 2           2             4    7     1      -0.4472324787E-02       4    7    1        -0.2421380129E+00      0.4952777081E+00
          0                 3           2             4    7     1       0.3045482990E-03       4    7    1         0.1694963941E-01      0.3466940209E-01
          0                 4           1             4    7     1      -0.1211826398E-04       4    7    1        -0.6932413560E-03      0.1417983965E-02

    ------------------------------------------------
       NWT REQUIRED            4 OUTER ITERATIONS 
       AND A TOTAL OF          7 INNER ITERATIONS.
    ------------------------------------------------

 NO OUTPUT CONTROL FOR STRESS PERIOD   48   TIME STEP   10
 
 SOLVING FOR HEAD 
                                                   Max.-Head-Change                         Max.-Flux-Residual
  Residual-Control   Outer-Iter.   Inner-Iter.     Column Row Layer    Maximum-Head-Change  Column Row Layer    Maximum-Flux-Residual          L2-NORM 
          0                 1           2             4    7     1       0.4536070033E-01       4    7    1         0.2388827720E+01      0.4893490145E+01
          0                 2           2             4    7     1      -0.4412403021E-02       4    7    1        -0.2388857429E+00      0.4893504973E+00
          0                 3           2             4    7     1       0.3004678597E-03       4    7    1         0.1672198112E-01      0.3425450320E-01
          0                 4           1             4    7     1      -0.1195589941E-04       4    7    1        -0.6839301100E-03      0.1401011695E-02

    ------------------------------------------------
       NWT REQUIRED            4 OUTER ITERATIONS 
       AND A TOTAL OF          7 INNER ITERATIONS.
    ------------------------------------------------

 NO OUTPUT CONTROL FOR STRESS PERIOD   48   TIME STEP   11
 
 SOLVING FOR HEAD 
                                                   Max.-Head-Change                         Max.-Flux-Residual
  Residual-Control   Outer-Iter.   Inner-Iter.     Column Row Layer    Maximum-Head-Change  Column Row Layer    Maximum-Flux-Residual          L2-NORM 
          0                 1           2             4    7     1       0.4475457699E-01       4    7    1         0.2356823434E+01      0.4835446142E+01
          0                 2           2             4    7     1      -0.4353442684E-02       4    7    1        -0.2356852418E+00      0.4835460451E+00
          0                 3           2             4    7     1       0.2964528896E-03       4    7    1         0.1649794662E-01      0.3384818254E-01
          0                 4           1             4    7     1      -0.1179614006E-04       4    7    1        -0.6747670893E-03      0.1384387993E-02

    ------------------------------------------------
       NWT REQUIRED            4 OUTER ITERATIONS 
       AND A TOTAL OF          7 INNER ITERATIONS.
    ------------------------------------------------

 NO OUTPUT CONTROL FOR STRESS PERIOD   48   TIME STEP   12
 
 SOLVING FOR HEAD 
                                                   Max.-Head-Change                         Max.-Flux-Residual
  Residual-Control   Outer-Iter.   Inner-Iter.     Column Row Layer    Maximum-Head-Change  Column Row Layer    Maximum-Flux-Residual          L2-NORM 
          0                 1           2             4    7     1       0.4415810013E-01       4    7    1         0.2325324329E+01      0.4778583881E+01
          0                 2           2             4    7     1      -0.4295420706E-02       4    7    1        -0.2325352603E+00      0.4778597778E+00
          0                 3           2             4    7     1       0.2925018182E-03       4    7    1         0.1627744849E-01      0.3345014633E-01
          0                 4           1             4    7     1      -0.1163892308E-04       4    7    1        -0.6657487011E-03      0.1368106038E-02

    ------------------------------------------------
       NWT REQUIRED            4 OUTER ITERATIONS 
       AND A TOTAL OF          7 INNER ITERATIONS.
    ------------------------------------------------

 NO OUTPUT CONTROL FOR STRESS PERIOD   48   TIME STEP   13
 
 SOLVING FOR HEAD 
                                                   Max.-Head-Change                         Max.-Flux-Residual
  Residual-Control   Outer-Iter.   Inner-Iter.     Column Row Layer    Maximum-Head-Change  Column Row Layer    Maximum-Flux-Residual          L2-NORM 
          0                 1           2             4    7     1       0.4357143234E-01       4    7    1         0.2294339882E+01      0.4722878286E+01
          0                 2           2             4    7     1      -0.4238352904E-02       4    7    1        -0.2294367459E+00      0.4722891697E+00
          0                 3           2             4    7     1       0.2886157225E-03       4    7    1         0.1606055305E-01      0.3306020763E-01
          0                 4           1             4    7     1      -0.1148429174E-04       4    7    1        -0.6568776623E-03      0.1352163315E-02

    ------------------------------------------------
       NWT REQUIRED            4 OUTER ITERATIONS 
       AND A TOTAL OF          7 INNER ITERATIONS.
    ------------------------------------------------

 NO OUTPUT CONTROL FOR STRESS PERIOD   48   TIME STEP   14
 
 SOLVING FOR HEAD 
                                                   Max.-Head-Change                         Max.-Flux-Residual
  Residual-Control   Outer-Iter.   Inner-Iter.     Column Row Layer    Maximum-Head-Change  Column Row Layer    Maximum-Flux-Residual          L2-NORM 
          0                 1           2             4    7     1       0.4299431587E-01       4    7    1         0.2263856750E+01      0.4668294377E+01
          0                 2           2             4    7     1      -0.4182214207E-02       4    7    1        -0.2263883646E+00      0.4668307288E+00
          0                 3           2             4    7     1       0.2847928950E-03       4    7    1         0.1584716692E-01      0.3267811302E-01
          0                 4           1             4    7     1      -0.1133217756E-04       4    7    1        -0.6481501368E-03      0.1336531569E-02

    ------------------------------------------------
       NWT REQUIRED            4 OUTER ITERATIONS 
       AND A TOTAL OF          7 INNER ITERATIONS.
    ------------------------------------------------

 NO OUTPUT CONTROL FOR STRESS PERIOD   48   TIME STEP   15
 
 SOLVING FOR HEAD 
                                                   Max.-Head-Change                         Max.-Flux-Residual
  Residual-Control   Outer-Iter.   Inner-Iter.     Column Row Layer    Maximum-Head-Change  Column Row Layer    Maximum-Flux-Residual          L2-NORM 
          0                 1           2             4    7     1       0.4242663027E-01       4    7    1         0.2233868829E+01      0.4614793685E+01
          0                 2           2             4    7     1      -0.4126992898E-02       4    7    1        -0.2233895058E+00      0.4614806114E+00
          0                 3           2             4    7     1       0.2810325383E-03       4    7    1         0.1563724734E-01      0.3230360560E-01
          0                 4           1             4    7     1      -0.1118254956E-04       4    7    1        -0.6395644223E-03      0.1321216458E-02

    ------------------------------------------------
       NWT REQUIRED            4 OUTER ITERATIONS 
       AND A TOTAL OF          7 INNER ITERATIONS.
    ------------------------------------------------

 NO OUTPUT CONTROL FOR STRESS PERIOD   48   TIME STEP   16
 
 SOLVING FOR HEAD 
                                                   Max.-Head-Change                         Max.-Flux-Residual
  Residual-Control   Outer-Iter.   Inner-Iter.     Column Row Layer    Maximum-Head-Change  Column Row Layer    Maximum-Flux-Residual          L2-NORM 
          0                 1           2             4    7     1       0.4186838266E-01       4    7    1         0.2204377133E+01      0.4562352746E+01
          0                 2           2             4    7     1      -0.4072689670E-02       4    7    1        -0.2204402710E+00      0.4562364668E+00
          0                 3           2             4    7     1       0.2773346993E-03       4    7    1         0.1543080143E-01      0.3193651623E-01
          0                 4           1             4    7     1      -0.1103540912E-04       4    7    1        -0.6311207731E-03      0.1306211102E-02

    ------------------------------------------------
       NWT REQUIRED            4 OUTER ITERATIONS 
       AND A TOTAL OF          7 INNER ITERATIONS.
    ------------------------------------------------

 NO OUTPUT CONTROL FOR STRESS PERIOD   48   TIME STEP   17
 
 SOLVING FOR HEAD 
                                                   Max.-Head-Change                         Max.-Flux-Residual
  Residual-Control   Outer-Iter.   Inner-Iter.     Column Row Layer    Maximum-Head-Change  Column Row Layer    Maximum-Flux-Residual          L2-NORM 
          0                 1           2             4    7     1       0.4131943963E-01       4    7    1         0.2175374772E+01      0.4510938967E+01
          0                 2           2             4    7     1      -0.4019291545E-02       4    7    1        -0.2175399712E+00      0.4510950463E+00
          0                 3           2             4    7     1       0.2736984940E-03       4    7    1         0.1522778094E-01      0.3157661221E-01
          0                 4           1             4    7     1      -0.1089072112E-04       4    7    1        -0.6228172340E-03      0.1291482293E-02

    ------------------------------------------------
       NWT REQUIRED            4 OUTER ITERATIONS 
       AND A TOTAL OF          7 INNER ITERATIONS.
    ------------------------------------------------

 NO OUTPUT CONTROL FOR STRESS PERIOD   48   TIME STEP   18
 
 SOLVING FOR HEAD 
                                                   Max.-Head-Change                         Max.-Flux-Residual
  Residual-Control   Outer-Iter.   Inner-Iter.     Column Row Layer    Maximum-Head-Change  Column Row Layer    Maximum-Flux-Residual          L2-NORM 
          0                 1           2             4    7     1       0.4077953292E-01       4    7    1         0.2146847569E+01      0.4460523701E+01
          0                 2           2             4    7     1      -0.3966772428E-02       4    7    1        -0.2146871886E+00      0.4460534733E+00
          0                 3           2             4    7     1       0.2701221459E-03       4    7    1         0.1502808668E-01      0.3122371015E-01
          0                 4           1             4    7     1      -0.1074841489E-04       4    7    1        -0.6146497185E-03      0.1277056351E-02

    ------------------------------------------------
       NWT REQUIRED            4 OUTER ITERATIONS 
       AND A TOTAL OF          7 INNER ITERATIONS.
    ------------------------------------------------

 NO OUTPUT CONTROL FOR STRESS PERIOD   48   TIME STEP   19
 
 SOLVING FOR HEAD 
                                                   Max.-Head-Change                         Max.-Flux-Residual
  Residual-Control   Outer-Iter.   Inner-Iter.     Column Row Layer    Maximum-Head-Change  Column Row Layer    Maximum-Flux-Residual          L2-NORM 
          0                 1           2             4    7     1       0.4024879886E-01       4    7    1         0.2118803398E+01      0.4411089918E+01
          0                 2           2             4    7     1      -0.3915145583E-02       4    7    1        -0.2118827107E+00      0.4411101024E+00
          0                 3           2             4    7     1       0.2666065579E-03       4    7    1         0.1483177372E-01      0.3087766271E-01
          0                 4           1             4    7     1      -0.1060852633E-04       4    7    1        -0.6066205005E-03      0.1262893462E-02

    ------------------------------------------------
       NWT REQUIRED            4 OUTER ITERATIONS 
       AND A TOTAL OF          7 INNER ITERATIONS.
    ------------------------------------------------

 NO OUTPUT CONTROL FOR STRESS PERIOD   48   TIME STEP   20
 
 SOLVING FOR HEAD 
                                                   Max.-Head-Change                         Max.-Flux-Residual
  Residual-Control   Outer-Iter.   Inner-Iter.     Column Row Layer    Maximum-Head-Change  Column Row Layer    Maximum-Flux-Residual          L2-NORM 
          0                 1           2             4    7     1       0.3972682306E-01       4    7    1         0.2091220282E+01      0.4362593044E+01
          0                 2           2             4    7     1      -0.3864370697E-02       4    7    1        -0.2091243397E+00      0.4362603203E+00
          0                 3           2             4    7     1       0.2631489845E-03       4    7    1         0.1463868822E-01      0.3053817715E-01
          0                 4           1             4    7     1      -0.1047094597E-04       4    7    1        -0.5987232814E-03      0.1249012307E-02

    ------------------------------------------------
       NWT REQUIRED            4 OUTER ITERATIONS 
       AND A TOTAL OF          7 INNER ITERATIONS.
    ------------------------------------------------

 NO OUTPUT CONTROL FOR STRESS PERIOD   48   TIME STEP   21
 
 SOLVING FOR HEAD 
                                                   Max.-Head-Change                         Max.-Flux-Residual
  Residual-Control   Outer-Iter.   Inner-Iter.     Column Row Layer    Maximum-Head-Change  Column Row Layer    Maximum-Flux-Residual          L2-NORM 
          0                 1           2             4    7     1       0.3921373897E-01       4    7    1         0.2064105785E+01      0.4315024218E+01
          0                 2           2             4    7     1      -0.3814460755E-02       4    7    1        -0.2064128321E+00      0.4315033924E+00
          0                 3           2             4    7     1       0.2597503110E-03       4    7    1         0.1444888316E-01      0.3020519301E-01
          0                 4           1             4    7     1      -0.1033570938E-04       4    7    1        -0.5909602401E-03      0.1235387411E-02

    ------------------------------------------------
       NWT REQUIRED            4 OUTER ITERATIONS 
       AND A TOTAL OF          7 INNER ITERATIONS.
    ------------------------------------------------

 NO OUTPUT CONTROL FOR STRESS PERIOD   48   TIME STEP   22
 
 SOLVING FOR HEAD 
                                                   Max.-Head-Change                         Max.-Flux-Residual
  Residual-Control   Outer-Iter.   Inner-Iter.     Column Row Layer    Maximum-Head-Change  Column Row Layer    Maximum-Flux-Residual          L2-NORM 
          0                 1           2             4    7     1       0.3870926486E-01       4    7    1         0.2037445039E+01      0.4268351582E+01
          0                 2           2             4    7     1      -0.3765388349E-02       4    7    1        -0.2037467009E+00      0.4268360899E+00
          0                 3           2             4    7     1       0.2564086705E-03       4    7    1         0.1426225444E-01      0.2987847686E-01
          0                 4           1             4    7     1      -0.1020274253E-04       4    7    1        -0.5833271198E-03      0.1222027220E-02

    ------------------------------------------------
       NWT REQUIRED            4 OUTER ITERATIONS 
       AND A TOTAL OF          7 INNER ITERATIONS.
    ------------------------------------------------

 NO OUTPUT CONTROL FOR STRESS PERIOD   48   TIME STEP   23
 
 SOLVING FOR HEAD 
                                                   Max.-Head-Change                         Max.-Flux-Residual
  Residual-Control   Outer-Iter.   Inner-Iter.     Column Row Layer    Maximum-Head-Change  Column Row Layer    Maximum-Flux-Residual          L2-NORM 
          0                 1           2             4    7     1       0.3821339192E-01       4    7    1         0.2011237963E+01      0.4222550474E+01
          0                 2           2             4    7     1      -0.3717152623E-02       4    7    1        -0.2011259381E+00      0.4222559362E+00
          0                 3           2             4    7     1       0.2531240041E-03       4    7    1         0.1407880148E-01      0.2955787121E-01
          0                 4           1             4    7     1      -0.1007204242E-04       4    7    1        -0.5758238758E-03      0.1208918135E-02

    ------------------------------------------------
       NWT REQUIRED            4 OUTER ITERATIONS 
       AND A TOTAL OF          7 INNER ITERATIONS.
    ------------------------------------------------

 NO OUTPUT CONTROL FOR STRESS PERIOD   48   TIME STEP   24
 
 SOLVING FOR HEAD 
                                                   Max.-Head-Change                         Max.-Flux-Residual
  Residual-Control   Outer-Iter.   Inner-Iter.     Column Row Layer    Maximum-Head-Change  Column Row Layer    Maximum-Flux-Residual          L2-NORM 
          0                 1           2             4    7     1       0.3772583741E-01       4    7    1         0.1985469572E+01      0.4177601478E+01
          0                 2           2             4    7     1      -0.3669726072E-02       4    7    1        -0.1985490452E+00      0.4177609973E+00
          0                 3           2             4    7     1       0.2498944398E-03       4    7    1         0.1389841942E-01      0.2924321885E-01
          0                 4           1             4    7     1      -0.9943535384E-05       4    7    1        -0.5684462424E-03      0.1196043616E-02

    ------------------------------------------------
       NWT REQUIRED            4 OUTER ITERATIONS 
       AND A TOTAL OF          7 INNER ITERATIONS.
    ------------------------------------------------

 NO OUTPUT CONTROL FOR STRESS PERIOD   48   TIME STEP   25
 
 SOLVING FOR HEAD 
                                                   Max.-Head-Change                         Max.-Flux-Residual
  Residual-Control   Outer-Iter.   Inner-Iter.     Column Row Layer    Maximum-Head-Change  Column Row Layer    Maximum-Flux-Residual          L2-NORM 
          0                 1           2             4    7     1       0.3724659551E-01       4    7    1         0.1960139736E+01      0.4133483309E+01
          0                 2           2             4    7     1      -0.3623108132E-02       4    7    1        -0.1960160092E+00      0.4133491399E+00
          0                 3           2             4    7     1       0.2467199383E-03       4    7    1         0.1372110731E-01      0.2893439508E-01
          0                 4           1             4    7     1      -0.9817218648E-05       4    7    1        -0.5611941597E-03      0.1183418881E-02

    ------------------------------------------------
       NWT REQUIRED            4 OUTER ITERATIONS 
       AND A TOTAL OF          7 INNER ITERATIONS.
    ------------------------------------------------

 NO OUTPUT CONTROL FOR STRESS PERIOD   48   TIME STEP   26
 
 SOLVING FOR HEAD 
                                                   Max.-Head-Change                         Max.-Flux-Residual
  Residual-Control   Outer-Iter.   Inner-Iter.     Column Row Layer    Maximum-Head-Change  Column Row Layer    Maximum-Flux-Residual          L2-NORM 
          0                 1           2             4    7     1       0.3677538419E-01       4    7    1         0.1935233624E+01      0.4090172163E+01
          0                 2           2             4    7     1      -0.3577271367E-02       4    7    1        -0.1935253468E+00      0.4090179885E+00
          0                 3           2             4    7     1       0.2435986315E-03       4    7    1         0.1354676134E-01      0.2863121656E-01
          0                 4           1             4    7     1      -0.9693018762E-05       4    7    1        -0.5540633890E-03      0.1171018146E-02

    ------------------------------------------------
       NWT REQUIRED            4 OUTER ITERATIONS 
       AND A TOTAL OF          7 INNER ITERATIONS.
    ------------------------------------------------

 NO OUTPUT CONTROL FOR STRESS PERIOD   48   TIME STEP   27
 
 SOLVING FOR HEAD 
                                                   Max.-Head-Change                         Max.-Flux-Residual
  Residual-Control   Outer-Iter.   Inner-Iter.     Column Row Layer    Maximum-Head-Change  Column Row Layer    Maximum-Flux-Residual          L2-NORM 
          0                 1           2             4    7     1       0.3631232992E-01       4    7    1         0.1910758410E+01      0.4047652332E+01
          0                 2           2             4    7     1      -0.3532228081E-02       4    7    1        -0.1910777756E+00      0.4047659602E+00
          0                 3           2             4    7     1       0.2405313581E-03       4    7    1         0.1337543175E-01      0.2833355861E-01
          0                 4           1             4    7     1      -0.9570969690E-05       4    7    1        -0.5470560154E-03      0.1158838818E-02

    ------------------------------------------------
       NWT REQUIRED            4 OUTER ITERATIONS 
       AND A TOTAL OF          7 INNER ITERATIONS.
    ------------------------------------------------

 NO OUTPUT CONTROL FOR STRESS PERIOD   48   TIME STEP   28
 
 SOLVING FOR HEAD 
                                                   Max.-Head-Change                         Max.-Flux-Residual
  Residual-Control   Outer-Iter.   Inner-Iter.     Column Row Layer    Maximum-Head-Change  Column Row Layer    Maximum-Flux-Residual          L2-NORM 
          0                 1           2             4    7     1       0.3585714596E-01       4    7    1         0.1886698854E+01      0.4005898465E+01
          0                 2           2             4    7     1      -0.3487950380E-02       4    7    1        -0.1886717716E+00      0.4005905467E+00
          0                 3           2             4    7     1       0.2375162180E-03       4    7    1         0.1320701187E-01      0.2804128967E-01
          0                 4           1             4    7     1      -0.9450993837E-05       4    7    1        -0.5401676224E-03      0.1146885279E-02

    ------------------------------------------------
       NWT REQUIRED            4 OUTER ITERATIONS 
       AND A TOTAL OF          7 INNER ITERATIONS.
    ------------------------------------------------

 NO OUTPUT CONTROL FOR STRESS PERIOD   48   TIME STEP   29
 
 SOLVING FOR HEAD 
                                                   Max.-Head-Change                         Max.-Flux-Residual
  Residual-Control   Outer-Iter.   Inner-Iter.     Column Row Layer    Maximum-Head-Change  Column Row Layer    Maximum-Flux-Residual          L2-NORM 
          0                 1           2             4    7     1       0.3540968723E-01       4    7    1         0.1863047356E+01      0.3964893176E+01
          0                 2           2             4    7     1      -0.3444424152E-02       4    7    1        -0.1863065745E+00      0.3964899766E+00
          0                 3           2             4    7     1       0.2345522500E-03       4    7    1         0.1304144845E-01      0.2775425131E-01
          0                 4           1             4    7     1      -0.9333055050E-05       4    7    1        -0.5333960667E-03      0.1135148759E-02

    ------------------------------------------------
       NWT REQUIRED            4 OUTER ITERATIONS 
       AND A TOTAL OF          7 INNER ITERATIONS.
    ------------------------------------------------

 NO OUTPUT CONTROL FOR STRESS PERIOD   48   TIME STEP   30



 STREAM LISTING     PERIOD     48   STEP       30

 LAYER ROW COL. STREAM  RCH.  FLOW INTO     FLOW TO   FLOW OUT OF   OVRLND.     DIRECT     STREAM       STREAM     STREAM     STREAM   STREAMBED  STREAMBED
                SEG.NO.  NO.  STRM. RCH.    AQUIFER    STRM. RCH.    RUNOFF     PRECIP       ET          HEAD       DEPTH      WIDTH   CONDCTNC.   GRADIENT

   1    1    1     1     1    1.9000E+01  2.1427E-01   1.8786E+01  0.000E+00  0.000E+00  0.000E+00  1.09413E+03  1.082E+00  1.166E+01  5.249E-02  1.361E+00
   1    2    2     1     2    1.8786E+01  3.3054E-01   1.8455E+01  0.000E+00  0.000E+00  0.000E+00  1.08914E+03  1.077E+00  1.158E+01  8.107E-02  1.359E+00
   1    3    3     1     3    1.8455E+01  2.8064E-01   1.8175E+01  0.000E+00  0.000E+00  0.000E+00  1.08349E+03  1.072E+00  1.149E+01  6.892E-02  1.357E+00
   1    3    4     1     4    1.8175E+01  2.5740E-01   1.7917E+01  0.000E+00  0.000E+00  0.000E+00  1.07848E+03  1.068E+00  1.140E+01  6.328E-02  1.356E+00
   1    4    5     2     1    1.5917E+01  3.0542E-01   1.5612E+01  0.000E+00  0.000E+00  0.000E+00  1.07285E+03  9.157E-01  1.200E+01  7.800E-02  1.305E+00
   1    5    6     2     2    1.5612E+01  2.3438E-01   1.5377E+01  0.000E+00  0.000E+00  0.000E+00  1.06742E+03  9.063E-01  1.200E+01  6.000E-02  1.302E+00
   1    6    6     2     3    1.5377E+01  2.3388E-01   1.5143E+01  0.000E+00  0.000E+00  0.000E+00  1.06269E+03  8.980E-01  1.200E+01  6.000E-02  1.299E+00
   1    7    6     2     4    1.5143E+01  2.3338E-01   1.4910E+01  0.000E+00  0.000E+00  0.000E+00  1.05797E+03  8.897E-01  1.200E+01  6.000E-02  1.297E+00
   1    8    6     2     5    1.4910E+01  2.3289E-01   1.4677E+01  0.000E+00  0.000E+00  0.000E+00  1.05324E+03  8.814E-01  1.200E+01  6.000E-02  1.294E+00
   1    3    5     3     1    2.0000E+00  2.8252E-01   1.7175E+00  0.000E+00  0.000E+00  0.000E+00  1.07555E+03  1.909E+00  9.636E+00  7.227E-02  1.955E+00
   1    3    6     3     2    1.7175E+00  2.4905E-01   1.4684E+00  0.000E+00  0.000E+00  0.000E+00  1.07264E+03  1.727E+00  8.909E+00  6.682E-02  1.864E+00
   1    3    7     3     3    1.4684E+00  1.9718E-01   1.2712E+00  0.000E+00  0.000E+00  0.000E+00  1.06987E+03  1.555E+00  8.218E+00  5.547E-02  1.777E+00
   1    4    8     3     4    1.2712E+00  2.2567E-01   1.0456E+00  0.000E+00  0.000E+00  0.000E+00  1.06682E+03  1.364E+00  7.455E+00  6.709E-02  1.682E+00
   1    5    8     3     5    1.0456E+00  1.5790E-01   8.8768E-01  0.000E+00  0.000E+00  0.000E+00  1.06362E+03  1.164E+00  6.655E+00  4.991E-02  1.582E+00
   1    6    8     3     6    8.8768E-01  5.5980E-02   8.3170E-01  0.000E+00  0.000E+00  0.000E+00  1.06158E+03  1.036E+00  6.145E+00  1.844E-02  1.518E+00
   1    5   10     4     1    1.0000E+01  9.0919E-02   9.9091E+00  0.000E+00  0.000E+00  0.000E+00  1.07836E+03  6.368E-01  1.000E+01  2.500E-02  1.212E+00
   1    5    9     4     2    9.9091E+00  1.8158E-01   9.7275E+00  0.000E+00  0.000E+00  0.000E+00  1.07154E+03  6.315E-01  1.000E+01  5.000E-02  1.211E+00
   1    6    8     4     3    9.7275E+00  1.2689E-01   9.6006E+00  0.000E+00  0.000E+00  0.000E+00  1.06381E+03  6.256E-01  1.000E+01  3.500E-02  1.209E+00
   1    6    8     5     1    1.0432E+01  2.2686E-01   1.0205E+01  0.000E+00  0.000E+00  0.000E+00  1.05868E+03  6.790E-01  1.542E+01  6.166E-02  1.226E+00
   1    7    7     5     2    1.0205E+01  2.7894E-01   9.9265E+00  0.000E+00  0.000E+00  0.000E+00  1.05417E+03  6.732E-01  1.519E+01  7.594E-02  1.224E+00
   1    8    7     5     3    9.9265E+00  1.9221E-01   9.7343E+00  0.000E+00  0.000E+00  0.000E+00  1.04992E+03  6.676E-01  1.497E+01  5.241E-02  1.223E+00
   1    8    6     5     4    9.7343E+00  1.3577E-01   9.5985E+00  0.000E+00  0.000E+00  0.000E+00  1.04691E+03  6.637E-01  1.482E+01  3.706E-02  1.221E+00
   1    9    6     6     1    2.4276E+01  2.5176E-01   2.4024E+01  0.000E+00  0.000E+00  0.000E+00  1.04392E+03  1.196E+00  1.200E+01  6.000E-02  1.399E+00
   1   10    7     6     2    2.4024E+01  2.5131E-01   2.3773E+01  0.000E+00  0.000E+00  0.000E+00  1.03937E+03  1.188E+00  1.200E+01  6.000E-02  1.396E+00
   1   11    7     6     3    2.3773E+01  2.5086E-01   2.3522E+01  0.000E+00  0.000E+00  0.000E+00  1.03482E+03  1.181E+00  1.200E+01  6.000E-02  1.394E+00
   1   12    7     6     4    2.3522E+01  2.5041E-01   2.3271E+01  0.000E+00  0.000E+00  0.000E+00  1.03026E+03  1.173E+00  1.200E+01  6.000E-02  1.391E+00
   1   13    7     6     5    2.3271E+01  1.2267E-02   2.3259E+01  0.000E+00  0.000E+00  0.000E+00  1.02708E+03  1.169E+00  1.200E+01  2.400E-02  1.704E-01
   1   14    9     7     1    1.5000E+02  1.3808E+00   1.4862E+02  0.000E+00  0.000E+00  0.000E+00  1.03987E+03  2.288E+00  5.529E+01  5.593E-01  8.229E-01
   1   13    8     7     2    1.4862E+02  1.9931E+00   1.4663E+02  0.000E+00  0.000E+00  0.000E+00  1.03478E+03  2.279E+00  5.525E+01  6.147E-01  1.081E+00
   1   13    7     7     3    1.4663E+02  1.7424E+00   1.4488E+02  0.000E+00  0.000E+00  0.000E+00  1.02969E+03  2.269E+00  5.521E+01  5.584E-01  1.040E+00
   1   13    6     8     1    1.6814E+02  1.1745E+00   1.6697E+02  0.000E+00  0.000E+00  0.000E+00  1.02481E+03  2.936E+00  4.258E+01  4.339E-01  9.024E-01
   1   13    5     8     2    1.6697E+02  4.1047E-01   1.6656E+02  0.000E+00  0.000E+00  0.000E+00  1.01856E+03  2.931E+00  4.250E+01  4.331E-01  3.159E-01
   1   13    4     8     3    1.6656E+02 -1.6428E+00   1.6820E+02  0.000E+00  0.000E+00  0.000E+00  1.01231E+03  2.935E+00  4.256E+01  4.337E+00 -1.263E-01
   1   13    3     8     4    1.6820E+02 -3.2664E+00   1.7147E+02  0.000E+00  0.000E+00  0.000E+00  1.00608E+03  2.951E+00  4.279E+01  4.361E+00 -2.497E-01
   1   13    2     8     5    1.7147E+02 -2.4809E+00   1.7395E+02  0.000E+00  0.000E+00  0.000E+00  9.99845E+02  2.970E+00  4.306E+01  4.388E+00 -1.885E-01
   1   13    1     8     6    1.7395E+02 -1.9567E+00   1.7590E+02  0.000E+00  0.000E+00  0.000E+00  9.94859E+02  2.984E+00  4.327E+01  2.645E+00 -2.465E-01





UNSATURATED ZONE PACKAGE VOLUMETRIC BUDGET FOR  TIME STEP    30 STRESS PERIOD   48
  ------------------------------------------------------------------------------



     CUMULATIVE VOLUMES      L**3       RATES FOR THIS TIME STEP      L**3/T
     ------------------                 ------------------------

           IN:                                      IN:
           ---                                      ---
        INFILTRATION =  2137691998.7859          INFILTRATION =           4.4075

          OUT:                                     OUT:
          ----                                     ----
              UZF ET =  1999211372.3519                UZF ET =           0.7250
        UZF RECHARGE =     1377622.8818          UZF RECHARGE =       0.0000E+00

            IN - OUT =   137103003.5522              IN - OUT =           3.6825

          STORAGE:                                 STORAGE:
          --------                                 --------
      STORAGE CHANGE =   137104625.7802        STORAGE CHANGE =           3.6825

 PERCENT DISCREPANCY IS DIFFERENCE BETWEEN IN-OUT MINUS CHANGE IN STORAGE
 DIVIDED BY THE AVERAGE OF IN AND OUT TIMES 100

 PERCENT DISCREPANCY =          -0.00     PERCENT DISCREPANCY =           0.00






1
  VOLUMETRIC BUDGET FOR ENTIRE MODEL AT END OF TIME STEP   30, STRESS PERIOD  48
  ------------------------------------------------------------------------------

     CUMULATIVE VOLUMES      L**3       RATES FOR THIS TIME STEP      L**3/T
     ------------------                 ------------------------

           IN:                                      IN:
           ---                                      ---
               AG WELLS  =  1592807680.0000                 AG WELLS  =           0.0000
      DIVERSION SEGMENTS =           0.0000        DIVERSION SEGMENTS =           0.0000
           GW IRRIGATION =           0.0000             GW IRRIGATION =           0.0000
           SW IRRIGATION =           0.0000             SW IRRIGATION =           0.0000
        SYSTEM LOSSES GW =           0.0000          SYSTEM LOSSES GW =           0.0000
        SYSTEM LOSSES SW =           0.0000          SYSTEM LOSSES SW =           0.0000

                TOTAL IN =  1592807680.0000                  TOTAL IN =           0.0000

          OUT:                                     OUT:
          ----                                     ----
               AG WELLS  =           0.0000                 AG WELLS  =           0.0000
      DIVERSION SEGMENTS =           0.0000        DIVERSION SEGMENTS =           0.0000
           GW IRRIGATION =  1592807680.0000             GW IRRIGATION =           0.0000
           SW IRRIGATION =           0.0000             SW IRRIGATION =           0.0000
        SYSTEM LOSSES GW =           0.0000          SYSTEM LOSSES GW =           0.0000
        SYSTEM LOSSES SW =           0.0000          SYSTEM LOSSES SW =           0.0000

               TOTAL OUT =  1592807680.0000                 TOTAL OUT =           0.0000

                IN - OUT =           0.0000                  IN - OUT =           0.0000

     PERCENT DISCREPANCY =           0.00         PERCENT DISCREPANCY =           0.00



1
  VOLUMETRIC BUDGET FOR ENTIRE MODEL AT END OF TIME STEP   30, STRESS PERIOD  48
  ------------------------------------------------------------------------------

     CUMULATIVE VOLUMES      L**3       RATES FOR THIS TIME STEP      L**3/T
     ------------------                 ------------------------

           IN:                                      IN:
           ---                                      ---
             STORAGE     =  2153294080.0000               STORAGE     =           9.1285
       CONSTANT HEAD     =           0.0000         CONSTANT HEAD     =           0.0000
     HEAD DEP BOUNDS     =    35421872.0000       HEAD DEP BOUNDS     =           0.2888
      STREAM LEAKAGE     =  1516068736.0000        STREAM LEAKAGE     =          12.4421
        UZF RECHARGE     =     1377623.2500          UZF RECHARGE     =           0.0000
               GW ET     =           0.0000                 GW ET     =           0.0000
     SURFACE LEAKAGE     =           0.0000       SURFACE LEAKAGE     =           0.0000
           AG WELLS      =           0.0000             AG WELLS      =           0.0000

                TOTAL IN =  3706162432.0000                  TOTAL IN =          21.8594

          OUT:                                     OUT:
          ----                                     ----
             STORAGE     =   810743040.0000               STORAGE     =          12.2239
       CONSTANT HEAD     =           0.0000         CONSTANT HEAD     =           0.0000
     HEAD DEP BOUNDS     =    36070768.0000       HEAD DEP BOUNDS     =           0.2887
      STREAM LEAKAGE     =  1249224448.0000        STREAM LEAKAGE     =           9.3468
        UZF RECHARGE     =           0.0000          UZF RECHARGE     =           0.0000
               GW ET     =    17319432.0000                 GW ET     =           0.0000
     SURFACE LEAKAGE     =           0.0000       SURFACE LEAKAGE     =           0.0000
           AG WELLS      =  1592807680.0000             AG WELLS      =           0.0000

               TOTAL OUT =  3706165248.0000                 TOTAL OUT =          21.8594

                IN - OUT =       -2816.0000                  IN - OUT =       1.5259E-05

     PERCENT DISCREPANCY =          -0.00         PERCENT DISCREPANCY =           0.00






         TIME SUMMARY AT END OF TIME STEP   30 IN STRESS PERIOD   48
                    SECONDS     MINUTES      HOURS       DAYS        YEARS
                    -----------------------------------------------------------
   TIME STEP LENGTH  87667.      1461.1      24.352      1.0147     2.77799E-03
 STRESS PERIOD TIME 2.63000E+06  43833.      730.56      30.440     8.33397E-02
         TOTAL TIME 1.23695E+08 2.06158E+06  34360.      1431.7      3.9197    
1
1
                            STRESS PERIOD NO.   49, LENGTH =   2630000.    
                            -----------------------------------------------

                              NUMBER OF TIME STEPS =    30

                               MULTIPLIER FOR DELT =     1.000

                            INITIAL TIME STEP SIZE =   87666.66    

 REUSING NON-PARAMETER GHB CELLS FROM LAST STRESS PERIOD

      2 GHB CELLS

 REUSING STREAM SEGMENT DATA FROM LAST STRESS PERIOD



            AREAL INFILTRATION RATE
 READING ON UNIT   19 WITH FORMAT: (10F4.0)            

            1           2           3           4           5           6           7           8           9          10
 ........................................................................................................................
   1   1.2000E-09   0.000       0.000       0.000       0.000       0.000       0.000       0.000       0.000       0.000    
   2   2.1000E-09  2.0000E-09  8.0000E-10  8.5000E-09   0.000       0.000       0.000       0.000       0.000       0.000    
   3   5.0000E-10  1.1000E-09  8.8000E-09  5.5000E-09   0.000       0.000       0.000       0.000       0.000       0.000    
   4   8.5000E-09  1.1000E-09  1.1000E-09  1.1000E-09  2.0000E-09   0.000       0.000       0.000       0.000       0.000    
   5   8.5000E-09  1.1000E-09  1.1000E-09  1.1000E-09  1.1000E-09   0.000       0.000       0.000       0.000       0.000    
   6   8.5000E-09  5.2000E-09  2.1000E-09  1.1000E-09  1.5000E-09   0.000       0.000       0.000       0.000       0.000    
   7   8.5000E-09  5.2000E-09  2.1000E-09  1.2000E-09  2.0000E-09   0.000       0.000       0.000       0.000       0.000    
   8   5.0000E-10  5.2000E-09  2.1000E-09  1.2000E-09  5.0000E-09   0.000       0.000       0.000       0.000       0.000    
   9   5.0000E-10  5.2000E-09  2.1000E-09  1.2000E-09  5.0000E-09   0.000       0.000       0.000       0.000       0.000    
  10   5.0000E-10  5.2000E-09  2.1000E-09  1.2000E-09  5.8000E-09   0.000       0.000       0.000       0.000       0.000    
  11   1.0000E-10  1.1000E-09  1.1000E-09  1.2000E-09  5.0000E-09   0.000       0.000       0.000       0.000       0.000    
  12   1.1000E-09  1.1000E-09  1.1000E-09  1.1000E-09  2.0000E-09   0.000       0.000       0.000       0.000       0.000    
  13   1.1000E-09  2.2000E-09  2.2000E-09  2.1000E-09  1.0000E-09   0.000       0.000       0.000       0.000       0.000    
  14   2.0000E-10  5.5000E-09  5.5000E-09  5.2000E-09  1.0000E-09   0.000       0.000       0.000       0.000       0.000    
  15    0.000      8.8000E-09  8.8000E-09   0.000       0.000       0.000       0.000       0.000       0.000       0.000    

                  ET RATE =  5.000000E-10

 USING ET EXTINCTION DEPTH FROM PREVIOUS STRESS PERIOD. CURRENT PERIOD IS:      49

 USING EXTINCTION WATER CONTENT FROM PREVIOUS STRESS PERIOD. CURRENT PERIOD IS:      49

 USING AIR ENTRY PRESSURE FROM PREVIOUS STRESS PERIOD. CURRENT PERIOD IS:      49

 USING ROOT PRESSURE HEAD FROM PREVIOUS STRESS PERIOD. CURRENT PERIOD IS:      49

 USING ROOT ACTIVITY FROM PREVIOUS STRESS PERIOD. CURRENT PERIOD IS:      49

 PROCESSING AG STRESS PERIOD DATA

 READING AG STRESS PERIOD DATA

 READING IRRIGATION WELL

 END PROCESSING AG STRESS PERIOD DATA OPTIONS
 
 SOLVING FOR HEAD 
                                                   Max.-Head-Change                         Max.-Flux-Residual
  Residual-Control   Outer-Iter.   Inner-Iter.     Column Row Layer    Maximum-Head-Change  Column Row Layer    Maximum-Flux-Residual          L2-NORM 
          0                 1           2             4    7     1       0.3496981261E-01       4    7    1         0.1839796393E+01      0.3924623248E+01
          0                 2           2             4    7     1      -0.3401635668E-02       4    7    1        -0.1839814321E+00      0.3924629524E+00
          0                 3           2             4    7     1       0.2316385194E-03       4    7    1         0.1287868885E-01      0.2747235787E-01
          0                 4           1             4    7     1      -0.9217114995E-05       4    7    1        -0.5267391859E-03      0.1123628547E-02

    ------------------------------------------------
       NWT REQUIRED            4 OUTER ITERATIONS 
       AND A TOTAL OF          7 INNER ITERATIONS.
    ------------------------------------------------

 NO OUTPUT CONTROL FOR STRESS PERIOD   49   TIME STEP    1
 
 SOLVING FOR HEAD 
                                                   Max.-Head-Change                         Max.-Flux-Residual
  Residual-Control   Outer-Iter.   Inner-Iter.     Column Row Layer    Maximum-Head-Change  Column Row Layer    Maximum-Flux-Residual          L2-NORM 
          0                 1           2             4    7     1       0.3453751074E-01       4    7    1         0.1816945916E+01      0.3885062726E+01
          0                 2           2             4    7     1      -0.3359583824E-02       4    7    1        -0.1816963396E+00      0.3885068591E+00
          0                 3           2             4    7     1       0.2287749511E-03       4    7    1         0.1271873273E-01      0.2719542529E-01
          0                 4           1             4    7     1      -0.9103170445E-05       4    7    1        -0.5201969655E-03      0.1112290030E-02

    ------------------------------------------------
       NWT REQUIRED            4 OUTER ITERATIONS 
       AND A TOTAL OF          7 INNER ITERATIONS.
    ------------------------------------------------

 NO OUTPUT CONTROL FOR STRESS PERIOD   49   TIME STEP    2
 
 SOLVING FOR HEAD 
                                                   Max.-Head-Change                         Max.-Flux-Residual
  Residual-Control   Outer-Iter.   Inner-Iter.     Column Row Layer    Maximum-Head-Change  Column Row Layer    Maximum-Flux-Residual          L2-NORM 
          0                 1           2             4    7     1       0.3411263364E-01       4    7    1         0.1794488071E+01      0.3846202587E+01
          0                 2           2             4    7     1      -0.3318254226E-02       4    7    1        -0.1794505114E+00      0.3846208140E+00
          0                 3           2             4    7     1       0.2259605653E-03       4    7    1         0.1256152510E-01      0.2692341330E-01
          0                 4           1             4    7     1      -0.8991183871E-05       4    7    1        -0.5137671783E-03      0.1101171164E-02

    ------------------------------------------------
       NWT REQUIRED            4 OUTER ITERATIONS 
       AND A TOTAL OF          7 INNER ITERATIONS.
    ------------------------------------------------

 NO OUTPUT CONTROL FOR STRESS PERIOD   49   TIME STEP    3
 
 SOLVING FOR HEAD 
                                                   Max.-Head-Change                         Max.-Flux-Residual
  Residual-Control   Outer-Iter.   Inner-Iter.     Column Row Layer    Maximum-Head-Change  Column Row Layer    Maximum-Flux-Residual          L2-NORM 
          0                 1           2             4    7     1       0.3369490584E-01       4    7    1         0.1772407914E+01      0.3808020845E+01
          0                 2           2             4    7     1      -0.3277620076E-02       4    7    1        -0.1772424532E+00      0.3808026077E+00
          0                 3           2             4    7     1       0.2231935365E-03       4    7    1         0.1240696138E-01      0.2665613210E-01
          0                 4           1             4    7     1      -0.8881080785E-05       4    7    1        -0.5074454941E-03      0.1090241607E-02

    ------------------------------------------------
       NWT REQUIRED            4 OUTER ITERATIONS 
       AND A TOTAL OF          7 INNER ITERATIONS.
    ------------------------------------------------

 NO OUTPUT CONTROL FOR STRESS PERIOD   49   TIME STEP    4
 
 SOLVING FOR HEAD 
                                                   Max.-Head-Change                         Max.-Flux-Residual
  Residual-Control   Outer-Iter.   Inner-Iter.     Column Row Layer    Maximum-Head-Change  Column Row Layer    Maximum-Flux-Residual          L2-NORM 
          0                 1           2             4    7     1       0.3328432041E-01       4    7    1         0.1750705702E+01      0.3770500073E+01
          0                 2           2             4    7     1      -0.3237680700E-02       4    7    1        -0.1750721905E+00      0.3770505031E+00
          0                 3           2             4    7     1       0.2204738188E-03       4    7    1         0.1225504331E-01      0.2639349217E-01
          0                 4           1             4    7     1      -0.8772860956E-05       4    7    1        -0.5012320387E-03      0.1079498441E-02

    ------------------------------------------------
       NWT REQUIRED            4 OUTER ITERATIONS 
       AND A TOTAL OF          7 INNER ITERATIONS.
    ------------------------------------------------

 NO OUTPUT CONTROL FOR STRESS PERIOD   49   TIME STEP    5
 
 SOLVING FOR HEAD 
                                                   Max.-Head-Change                         Max.-Flux-Residual
  Residual-Control   Outer-Iter.   Inner-Iter.     Column Row Layer    Maximum-Head-Change  Column Row Layer    Maximum-Flux-Residual          L2-NORM 
          0                 1           2             4    7     1       0.3288060614E-01       4    7    1         0.1729366535E+01      0.3733626625E+01
          0                 2           2             4    7     1      -0.3198409716E-02       4    7    1        -0.1729382335E+00      0.3733631223E+00
          0                 3           2             4    7     1       0.2177996159E-03       4    7    1         0.1210566661E-01      0.2613536820E-01
          0                 4           1             4    7     1      -0.8666451738E-05       4    7    1        -0.4951225244E-03      0.1068938381E-02

    ------------------------------------------------
       NWT REQUIRED            4 OUTER ITERATIONS 
       AND A TOTAL OF          7 INNER ITERATIONS.
    ------------------------------------------------

 NO OUTPUT CONTROL FOR STRESS PERIOD   49   TIME STEP    6
 
 SOLVING FOR HEAD 
                                                   Max.-Head-Change                         Max.-Flux-Residual
  Residual-Control   Outer-Iter.   Inner-Iter.     Column Row Layer    Maximum-Head-Change  Column Row Layer    Maximum-Flux-Residual          L2-NORM 
          0                 1           2             4    7     1       0.3248389531E-01       4    7    1         0.1708398164E+01      0.3697388967E+01
          0                 2           2             4    7     1      -0.3159819993E-02       4    7    1        -0.1708413572E+00      0.3697393313E+00
          0                 3           2             4    7     1       0.2151718045E-03       4    7    1         0.1195888559E-01      0.2588170233E-01
          0                 4           1             4    7     1      -0.8561888362E-05       4    7    1        -0.4891191620E-03      0.1058557946E-02

    ------------------------------------------------
       NWT REQUIRED            4 OUTER ITERATIONS 
       AND A TOTAL OF          7 INNER ITERATIONS.
    ------------------------------------------------

 NO OUTPUT CONTROL FOR STRESS PERIOD   49   TIME STEP    7
 
 SOLVING FOR HEAD 
                                                   Max.-Head-Change                         Max.-Flux-Residual
  Residual-Control   Outer-Iter.   Inner-Iter.     Column Row Layer    Maximum-Head-Change  Column Row Layer    Maximum-Flux-Residual          L2-NORM 
          0                 1           2             4    7     1       0.3209391040E-01       4    7    1         0.1687785636E+01      0.3661770761E+01
          0                 2           2             4    7     1      -0.3121884534E-02       4    7    1        -0.1687800663E+00      0.3661774684E+00
          0                 3           2             4    7     1       0.2125885463E-03       4    7    1         0.1181459554E-01      0.2563236266E-01
          0                 4           1             4    7     1      -0.8459098295E-05       4    7    1        -0.4832176940E-03      0.1048362563E-02

    ------------------------------------------------
       NWT REQUIRED            4 OUTER ITERATIONS 
       AND A TOTAL OF          7 INNER ITERATIONS.
    ------------------------------------------------

 NO OUTPUT CONTROL FOR STRESS PERIOD   49   TIME STEP    8
 
 SOLVING FOR HEAD 
                                                   Max.-Head-Change                         Max.-Flux-Residual
  Residual-Control   Outer-Iter.   Inner-Iter.     Column Row Layer    Maximum-Head-Change  Column Row Layer    Maximum-Flux-Residual          L2-NORM 
          0                 1           2             4    7     1       0.3171051623E-01       4    7    1         0.1667521833E+01      0.3626755129E+01
          0                 2           2             4    7     1      -0.3084590188E-02       4    7    1        -0.1667536488E+00      0.3626758827E+00
          0                 3           2             4    7     1       0.2100489447E-03       4    7    1         0.1167274658E-01      0.2538726073E-01
          0                 4           1             4    7     1      -0.8358045159E-05       4    7    1        -0.4774160657E-03      0.1038339325E-02

    ------------------------------------------------
       NWT REQUIRED            4 OUTER ITERATIONS 
       AND A TOTAL OF          7 INNER ITERATIONS.
    ------------------------------------------------

 NO OUTPUT CONTROL FOR STRESS PERIOD   49   TIME STEP    9
 
 SOLVING FOR HEAD 
                                                   Max.-Head-Change                         Max.-Flux-Residual
  Residual-Control   Outer-Iter.   Inner-Iter.     Column Row Layer    Maximum-Head-Change  Column Row Layer    Maximum-Flux-Residual          L2-NORM 
          0                 1           2             4    7     1       0.3133358011E-01       4    7    1         0.1647599744E+01      0.3592326177E+01
          0                 2           2             4    7     1      -0.3047924050E-02       4    7    1        -0.1647614038E+00      0.3592329636E+00
          0                 3           2             4    7     1       0.2075521222E-03       4    7    1         0.1153328974E-01      0.2514625282E-01
          0                 4           1             4    7     1      -0.8258694300E-05       4    7    1        -0.4717122715E-03      0.1028481141E-02

    ------------------------------------------------
       NWT REQUIRED            4 OUTER ITERATIONS 
       AND A TOTAL OF          7 INNER ITERATIONS.
    ------------------------------------------------

 NO OUTPUT CONTROL FOR STRESS PERIOD   49   TIME STEP   10
 
 SOLVING FOR HEAD 
                                                   Max.-Head-Change                         Max.-Flux-Residual
  Residual-Control   Outer-Iter.   Inner-Iter.     Column Row Layer    Maximum-Head-Change  Column Row Layer    Maximum-Flux-Residual          L2-NORM 
          0                 1           2             4    7     1       0.3096310465E-01       4    7    1         0.1628019765E+01      0.3558475848E+01
          0                 2           2             4    7     1      -0.3011886371E-02       4    7    1        -0.1628033707E+00      0.3558479033E+00
          0                 3           2             4    7     1       0.2050980948E-03       4    7    1         0.1139622768E-01      0.2490930383E-01
          0                 4           1             4    7     1      -0.8161046408E-05       4    7    1        -0.4661064368E-03      0.1018785791E-02

    ------------------------------------------------
       NWT REQUIRED            4 OUTER ITERATIONS 
       AND A TOTAL OF          7 INNER ITERATIONS.
    ------------------------------------------------

 NO OUTPUT CONTROL FOR STRESS PERIOD   49   TIME STEP   11
 
 SOLVING FOR HEAD 
                                                   Max.-Head-Change                         Max.-Flux-Residual
  Residual-Control   Outer-Iter.   Inner-Iter.     Column Row Layer    Maximum-Head-Change  Column Row Layer    Maximum-Flux-Residual          L2-NORM 
          0                 1           2             4    7     1       0.3059882013E-01       4    7    1         0.1608767484E+01      0.3525184492E+01
          0                 2           2             4    7     1      -0.2976450023E-02       4    7    1        -0.1608781084E+00      0.3524665013E+00
          0                 3           2             4    7     1       0.2026850153E-03       4    7    1         0.1126145957E-01      0.2467264200E-01
          0                 4           1             4    7     1      -0.8065027341E-05       4    7    1        -0.4605943927E-03      0.1009356942E-02

    ------------------------------------------------
       NWT REQUIRED            4 OUTER ITERATIONS 
       AND A TOTAL OF          7 INNER ITERATIONS.
    ------------------------------------------------

 NO OUTPUT CONTROL FOR STRESS PERIOD   49   TIME STEP   12
 
 SOLVING FOR HEAD 
                                                   Max.-Head-Change                         Max.-Flux-Residual
  Residual-Control   Outer-Iter.   Inner-Iter.     Column Row Layer    Maximum-Head-Change  Column Row Layer    Maximum-Flux-Residual          L2-NORM 
          0                 1           2             4    7     1       0.3024074284E-01       4    7    1         0.1589843513E+01      0.3492497766E+01
          0                 2           2             4    7     1      -0.2941619270E-02       4    7    1        -0.1589856778E+00      0.3492500663E+00
          0                 3           2             4    7     1       0.2003131749E-03       4    7    1         0.1112898970E-01      0.2444744642E-01
          0                 4           1             4    7     1      -0.7970649419E-05       4    7    1        -0.4551763568E-03      0.9998939946E-03

    ------------------------------------------------
       NWT REQUIRED            4 OUTER ITERATIONS 
       AND A TOTAL OF          7 INNER ITERATIONS.
    ------------------------------------------------

 NO OUTPUT CONTROL FOR STRESS PERIOD   49   TIME STEP   13
 
 SOLVING FOR HEAD 
                                                   Max.-Head-Change                         Max.-Flux-Residual
  Residual-Control   Outer-Iter.   Inner-Iter.     Column Row Layer    Maximum-Head-Change  Column Row Layer    Maximum-Flux-Residual          L2-NORM 
          0                 1           2             4    7     1       0.2988860271E-01       4    7    1         0.1571234003E+01      0.3460363862E+01
          0                 2           2             4    7     1      -0.2907365160E-02       4    7    1        -0.1571246944E+00      0.3460366609E+00
          0                 3           2             4    7     1       0.1979806018E-03       4    7    1         0.1099872110E-01      0.2422250808E-01
          0                 4           1             4    7     1      -0.7877834468E-05       4    7    1        -0.4498483809E-03      0.9906922836E-03

    ------------------------------------------------
       NWT REQUIRED            4 OUTER ITERATIONS 
       AND A TOTAL OF          7 INNER ITERATIONS.
    ------------------------------------------------

 NO OUTPUT CONTROL FOR STRESS PERIOD   49   TIME STEP   14
 
 SOLVING FOR HEAD 
                                                   Max.-Head-Change                         Max.-Flux-Residual
  Residual-Control   Outer-Iter.   Inner-Iter.     Column Row Layer    Maximum-Head-Change  Column Row Layer    Maximum-Flux-Residual          L2-NORM 
          0                 1           2             4    7     1       0.2954254963E-01       4    7    1         0.1552946920E+01      0.3428765269E+01
          0                 2           2             4    7     1      -0.2873703168E-02       4    7    1        -0.1552959546E+00      0.3428767708E+00
          0                 3           2             4    7     1       0.1956883499E-03       4    7    1         0.1087070959E-01      0.2400132208E-01
          0                 4           1             4    7     1      -0.7786623476E-05       4    7    1        -0.4446126975E-03      0.9816478934E-03

    ------------------------------------------------
       NWT REQUIRED            4 OUTER ITERATIONS 
       AND A TOTAL OF          7 INNER ITERATIONS.
    ------------------------------------------------

 NO OUTPUT CONTROL FOR STRESS PERIOD   49   TIME STEP   15
 
 SOLVING FOR HEAD 
                                                   Max.-Head-Change                         Max.-Flux-Residual
  Residual-Control   Outer-Iter.   Inner-Iter.     Column Row Layer    Maximum-Head-Change  Column Row Layer    Maximum-Flux-Residual          L2-NORM 
          0                 1           2             4    7     1       0.2920218754E-01       4    7    1         0.1534960889E+01      0.3397677705E+01
          0                 2           2             4    7     1      -0.2840594765E-02       4    7    1        -0.1534973208E+00      0.3397679888E+00
          0                 3           2             4    7     1       0.1934337942E-03       4    7    1         0.1074480543E-01      0.2378370867E-01
          0                 4           1             4    7     1      -0.7696912365E-05       4    7    1        -0.4394631924E-03      0.9727776632E-03

    ------------------------------------------------
       NWT REQUIRED            4 OUTER ITERATIONS 
       AND A TOTAL OF          7 INNER ITERATIONS.
    ------------------------------------------------

 NO OUTPUT CONTROL FOR STRESS PERIOD   49   TIME STEP   16
 
 SOLVING FOR HEAD 
                                                   Max.-Head-Change                         Max.-Flux-Residual
  Residual-Control   Outer-Iter.   Inner-Iter.     Column Row Layer    Maximum-Head-Change  Column Row Layer    Maximum-Flux-Residual          L2-NORM 
          0                 1           2             4    7     1       0.2886753341E-01       4    7    1         0.1517277198E+01      0.3367086861E+01
          0                 2           2             4    7     1      -0.2808041602E-02       4    7    1        -0.1517289218E+00      0.3367088752E+00
          0                 3           2             4    7     1       0.1912170492E-03       4    7    1         0.1062101775E-01      0.2356954274E-01
          0                 4           1             4    7     1      -0.7608706203E-05       4    7    1        -0.4344002864E-03      0.9639723296E-03

    ------------------------------------------------
       NWT REQUIRED            4 OUTER ITERATIONS 
       AND A TOTAL OF          7 INNER ITERATIONS.
    ------------------------------------------------

 NO OUTPUT CONTROL FOR STRESS PERIOD   49   TIME STEP   17
 
 SOLVING FOR HEAD 
                                                   Max.-Head-Change                         Max.-Flux-Residual
  Residual-Control   Outer-Iter.   Inner-Iter.     Column Row Layer    Maximum-Head-Change  Column Row Layer    Maximum-Flux-Residual          L2-NORM 
          0                 1           2             4    7     1       0.2853833182E-01       4    7    1         0.1499882177E+01      0.3336988296E+01
          0                 2           2             4    7     1      -0.2776018836E-02       4    7    1        -0.1499893906E+00      0.3336990053E+00
          0                 3           2             4    7     1       0.1890364218E-03       4    7    1         0.1049925079E-01      0.2335887979E-01
          0                 4           1             4    7     1      -0.7521937179E-05       4    7    1        -0.4294200094E-03      0.9553690762E-03

    ------------------------------------------------
       NWT REQUIRED            4 OUTER ITERATIONS 
       AND A TOTAL OF          7 INNER ITERATIONS.
    ------------------------------------------------

 NO OUTPUT CONTROL FOR STRESS PERIOD   49   TIME STEP   18
 
 SOLVING FOR HEAD 
                                                   Max.-Head-Change                         Max.-Flux-Residual
  Residual-Control   Outer-Iter.   Inner-Iter.     Column Row Layer    Maximum-Head-Change  Column Row Layer    Maximum-Flux-Residual          L2-NORM 
          0                 1           2             4    7     1       0.2821487524E-01       4    7    1         0.1482791690E+01      0.3307376201E+01
          0                 2           2             4    7     1      -0.2744554913E-02       4    7    1        -0.1482803136E+00      0.3307377663E+00
          0                 3           2             4    7     1       0.1868938492E-03       4    7    1         0.1037961561E-01      0.2315159166E-01
          0                 4           1             4    7     1      -0.7436682082E-05       4    7    1        -0.4245269120E-03      0.9468967473E-03

    ------------------------------------------------
       NWT REQUIRED            4 OUTER ITERATIONS 
       AND A TOTAL OF          7 INNER ITERATIONS.
    ------------------------------------------------

 NO OUTPUT CONTROL FOR STRESS PERIOD   49   TIME STEP   19
 
 SOLVING FOR HEAD 
                                                   Max.-Head-Change                         Max.-Flux-Residual
  Residual-Control   Outer-Iter.   Inner-Iter.     Column Row Layer    Maximum-Head-Change  Column Row Layer    Maximum-Flux-Residual          L2-NORM 
          0                 1           2             4    7     1       0.2789663434E-01       4    7    1         0.1465977239E+01      0.3278229573E+01
          0                 2           2             4    7     1      -0.2713598346E-02       4    7    1        -0.1465988409E+00      0.3278230818E+00
          0                 3           2             4    7     1       0.1847858258E-03       4    7    1         0.1026191273E-01      0.2294755706E-01
          0                 4           1             4    7     1      -0.7352801724E-05       4    7    1        -0.4197128587E-03      0.9385533188E-03

    ------------------------------------------------
       NWT REQUIRED            4 OUTER ITERATIONS 
       AND A TOTAL OF          7 INNER ITERATIONS.
    ------------------------------------------------

 NO OUTPUT CONTROL FOR STRESS PERIOD   49   TIME STEP   20
 
 SOLVING FOR HEAD 
                                                   Max.-Head-Change                         Max.-Flux-Residual
  Residual-Control   Outer-Iter.   Inner-Iter.     Column Row Layer    Maximum-Head-Change  Column Row Layer    Maximum-Flux-Residual          L2-NORM 
          0                 1           2             4    7     1       0.2758363575E-01       4    7    1         0.1449440487E+01      0.3249541250E+01
          0                 2           2             4    7     1      -0.2683151724E-02       4    7    1        -0.1449451390E+00      0.3249542301E+00
          0                 3           2             4    7     1       0.1827125275E-03       4    7    1         0.1014615379E-01      0.2274674109E-01
          0                 4           1             4    7     1      -0.7270303473E-05       4    7    1        -0.4149783201E-03      0.9303421454E-03

    ------------------------------------------------
       NWT REQUIRED            4 OUTER ITERATIONS 
       AND A TOTAL OF          7 INNER ITERATIONS.
    ------------------------------------------------

 NO OUTPUT CONTROL FOR STRESS PERIOD   49   TIME STEP   21
 
 SOLVING FOR HEAD 
                                                   Max.-Head-Change                         Max.-Flux-Residual
  Residual-Control   Outer-Iter.   Inner-Iter.     Column Row Layer    Maximum-Head-Change  Column Row Layer    Maximum-Flux-Residual          L2-NORM 
          0                 1           2             4    7     1       0.2727590641E-01       4    7    1         0.1433182818E+01      0.3221308030E+01
          0                 2           2             4    7     1      -0.2653217665E-02       4    7    1        -0.1433193460E+00      0.3221308873E+00
          0                 3           2             4    7     1       0.1806741332E-03       4    7    1         0.1003234848E-01      0.2254911721E-01
          0                 4           1             4    7     1      -0.7189193776E-05       4    7    1        -0.4103236845E-03      0.9222614975E-03

    ------------------------------------------------
       NWT REQUIRED            4 OUTER ITERATIONS 
       AND A TOTAL OF          7 INNER ITERATIONS.
    ------------------------------------------------

 NO OUTPUT CONTROL FOR STRESS PERIOD   49   TIME STEP   22
 
 SOLVING FOR HEAD 
                                                   Max.-Head-Change                         Max.-Flux-Residual
  Residual-Control   Outer-Iter.   Inner-Iter.     Column Row Layer    Maximum-Head-Change  Column Row Layer    Maximum-Flux-Residual          L2-NORM 
          0                 1           2             4    7     1       0.2697319646E-01       4    7    1         0.1417191070E+01      0.3193511515E+01
          0                 2           2             4    7     1      -0.2623771867E-02       4    7    1        -0.1417201458E+00      0.3193512147E+00
          0                 3           2             4    7     1       0.1786689868E-03       4    7    1         0.9920404656E-02      0.2235452837E-01
          0                 4           1             4    7     1      -0.7109407126E-05       4    7    1        -0.4057451602E-03      0.9142946081E-03

    ------------------------------------------------
       NWT REQUIRED            4 OUTER ITERATIONS 
       AND A TOTAL OF          7 INNER ITERATIONS.
    ------------------------------------------------

 NO OUTPUT CONTROL FOR STRESS PERIOD   49   TIME STEP   23
 
 SOLVING FOR HEAD 
                                                   Max.-Head-Change                         Max.-Flux-Residual
  Residual-Control   Outer-Iter.   Inner-Iter.     Column Row Layer    Maximum-Head-Change  Column Row Layer    Maximum-Flux-Residual          L2-NORM 
          0                 1           2             4    7     1       0.2667553250E-01       4    7    1         0.1401466846E+01      0.3166148264E+01
          0                 2           2             4    7     1      -0.2594816917E-02       4    7    1        -0.1401476987E+00      0.3166148651E+00
          0                 3           2             4    7     1       0.1766972658E-03       4    7    1         0.9810333557E-02      0.2216297595E-01
          0                 4           1             4    7     1      -0.7030950429E-05       4    7    1        -0.4012432491E-03      0.9064552065E-03

    ------------------------------------------------
       NWT REQUIRED            4 OUTER ITERATIONS 
       AND A TOTAL OF          7 INNER ITERATIONS.
    ------------------------------------------------

 NO OUTPUT CONTROL FOR STRESS PERIOD   49   TIME STEP   24
 
 SOLVING FOR HEAD 
                                                   Max.-Head-Change                         Max.-Flux-Residual
  Residual-Control   Outer-Iter.   Inner-Iter.     Column Row Layer    Maximum-Head-Change  Column Row Layer    Maximum-Flux-Residual          L2-NORM 
          0                 1           2             4    7     1       0.2638267411E-01       4    7    1         0.1385996968E+01      0.3139203587E+01
          0                 2           2             4    7     1      -0.2566329427E-02       4    7    1        -0.1386006869E+00      0.3139203481E+00
          0                 3           2             4    7     1       0.1747573767E-03       4    7    1         0.9702042904E-02      0.2197434442E-01
          0                 4           1             4    7     1      -0.6953760481E-05       4    7    1        -0.3968141505E-03      0.8987493488E-03

    ------------------------------------------------
       NWT REQUIRED            4 OUTER ITERATIONS 
       AND A TOTAL OF          7 INNER ITERATIONS.
    ------------------------------------------------

 NO OUTPUT CONTROL FOR STRESS PERIOD   49   TIME STEP   25
 
 SOLVING FOR HEAD 
                                                   Max.-Head-Change                         Max.-Flux-Residual
  Residual-Control   Outer-Iter.   Inner-Iter.     Column Row Layer    Maximum-Head-Change  Column Row Layer    Maximum-Flux-Residual          L2-NORM 
          0                 1           2             4    7     1       0.2609465503E-01       4    7    1         0.1370783529E+01      0.3112678062E+01
          0                 2           2             4    7     1      -0.2538312681E-02       4    7    1        -0.1370793196E+00      0.3112678114E+00
          0                 3           2             4    7     1       0.1728495438E-03       4    7    1         0.9595547376E-02      0.2178869262E-01
          0                 4           1             4    7     1      -0.6877846032E-05       4    7    1        -0.3924584889E-03      0.8911583998E-03

    ------------------------------------------------
       NWT REQUIRED            4 OUTER ITERATIONS 
       AND A TOTAL OF          7 INNER ITERATIONS.
    ------------------------------------------------

 NO OUTPUT CONTROL FOR STRESS PERIOD   49   TIME STEP   26
 
 SOLVING FOR HEAD 
                                                   Max.-Head-Change                         Max.-Flux-Residual
  Residual-Control   Outer-Iter.   Inner-Iter.     Column Row Layer    Maximum-Head-Change  Column Row Layer    Maximum-Flux-Residual          L2-NORM 
          0                 1           2             4    7     1       0.2581137104E-01       4    7    1         0.1355821000E+01      0.3086558290E+01
          0                 2           2             4    7     1      -0.2510756537E-02       4    7    1        -0.1355830439E+00      0.3086558017E+00
          0                 3           2             4    7     1       0.1709730757E-03       4    7    1         0.9490808244E-02      0.2160584713E-01
          0                 4           1             4    7     1      -0.6803179567E-05       4    7    1        -0.3881746461E-03      0.8836815281E-03

    ------------------------------------------------
       NWT REQUIRED            4 OUTER ITERATIONS 
       AND A TOTAL OF          7 INNER ITERATIONS.
    ------------------------------------------------

 NO OUTPUT CONTROL FOR STRESS PERIOD   49   TIME STEP   27
 
 SOLVING FOR HEAD 
                                                   Max.-Head-Change                         Max.-Flux-Residual
  Residual-Control   Outer-Iter.   Inner-Iter.     Column Row Layer    Maximum-Head-Change  Column Row Layer    Maximum-Flux-Residual          L2-NORM 
          0                 1           2             4    7     1       0.2553271737E-01       4    7    1         0.1341103975E+01      0.3060833507E+01
          0                 2           2             4    7     1      -0.2483651525E-02       4    7    1        -0.1341113193E+00      0.3061292816E+00
          0                 3           2             4    7     1       0.1691273278E-03       4    7    1         0.9387787681E-02      0.2142898778E-01
          0                 4           1             4    7     1      -0.6729735296E-05       4    7    1        -0.3839610899E-03      0.8764420086E-03

    ------------------------------------------------
       NWT REQUIRED            4 OUTER ITERATIONS 
       AND A TOTAL OF          7 INNER ITERATIONS.
    ------------------------------------------------

 NO OUTPUT CONTROL FOR STRESS PERIOD   49   TIME STEP   28
 
 SOLVING FOR HEAD 
                                                   Max.-Head-Change                         Max.-Flux-Residual
  Residual-Control   Outer-Iter.   Inner-Iter.     Column Row Layer    Maximum-Head-Change  Column Row Layer    Maximum-Flux-Residual          L2-NORM 
          0                 1           2             4    7     1       0.2525846402E-01       4    7    1         0.1326619705E+01      0.3035460679E+01
          0                 2           2             4    7     1      -0.2456973117E-02       4    7    1        -0.1326628707E+00      0.3035460308E+00
          0                 3           2             4    7     1       0.1673106305E-03       4    7    1         0.9286396453E-02      0.2124817414E-01
          0                 4           1             4    7     1      -0.6657447251E-05       4    7    1        -0.3798141831E-03      0.8690512511E-03

    ------------------------------------------------
       NWT REQUIRED            4 OUTER ITERATIONS 
       AND A TOTAL OF          7 INNER ITERATIONS.
    ------------------------------------------------

 NO OUTPUT CONTROL FOR STRESS PERIOD   49   TIME STEP   29
 
 SOLVING FOR HEAD 
                                                   Max.-Head-Change                         Max.-Flux-Residual
  Residual-Control   Outer-Iter.   Inner-Iter.     Column Row Layer    Maximum-Head-Change  Column Row Layer    Maximum-Flux-Residual          L2-NORM 
          0                 1           2             4    7     1       0.2498864634E-01       4    7    1         0.1312370940E+01      0.3010448331E+01
          0                 2           2             4    7     1      -0.2430726904E-02       4    7    1        -0.1312379733E+00      0.3010447574E+00
          0                 3           2             4    7     1       0.1655233639E-03       4    7    1         0.9186653783E-02      0.2107306795E-01
          0                 4           1             4    7     1      -0.6586330399E-05       4    7    1        -0.3757347170E-03      0.8618817049E-03

    ------------------------------------------------
       NWT REQUIRED            4 OUTER ITERATIONS 
       AND A TOTAL OF          7 INNER ITERATIONS.
    ------------------------------------------------

 NO OUTPUT CONTROL FOR STRESS PERIOD   49   TIME STEP   30



 STREAM LISTING     PERIOD     49   STEP       30

 LAYER ROW COL. STREAM  RCH.  FLOW INTO     FLOW TO   FLOW OUT OF   OVRLND.     DIRECT     STREAM       STREAM     STREAM     STREAM   STREAMBED  STREAMBED
                SEG.NO.  NO.  STRM. RCH.    AQUIFER    STRM. RCH.    RUNOFF     PRECIP       ET          HEAD       DEPTH      WIDTH   CONDCTNC.   GRADIENT

   1    1    1     1     1    1.9000E+01  2.1427E-01   1.8786E+01  0.000E+00  0.000E+00  0.000E+00  1.09413E+03  1.082E+00  1.166E+01  5.249E-02  1.361E+00
   1    2    2     1     2    1.8786E+01  3.3054E-01   1.8455E+01  0.000E+00  0.000E+00  0.000E+00  1.08914E+03  1.077E+00  1.158E+01  8.107E-02  1.359E+00
   1    3    3     1     3    1.8455E+01  2.8064E-01   1.8175E+01  0.000E+00  0.000E+00  0.000E+00  1.08349E+03  1.072E+00  1.149E+01  6.892E-02  1.357E+00
   1    3    4     1     4    1.8175E+01  2.5740E-01   1.7917E+01  0.000E+00  0.000E+00  0.000E+00  1.07848E+03  1.068E+00  1.140E+01  6.328E-02  1.356E+00
   1    4    5     2     1    1.5917E+01  3.0542E-01   1.5612E+01  0.000E+00  0.000E+00  0.000E+00  1.07285E+03  9.157E-01  1.200E+01  7.800E-02  1.305E+00
   1    5    6     2     2    1.5612E+01  2.3438E-01   1.5377E+01  0.000E+00  0.000E+00  0.000E+00  1.06742E+03  9.063E-01  1.200E+01  6.000E-02  1.302E+00
   1    6    6     2     3    1.5377E+01  2.3388E-01   1.5143E+01  0.000E+00  0.000E+00  0.000E+00  1.06269E+03  8.980E-01  1.200E+01  6.000E-02  1.299E+00
   1    7    6     2     4    1.5143E+01  2.3338E-01   1.4910E+01  0.000E+00  0.000E+00  0.000E+00  1.05797E+03  8.897E-01  1.200E+01  6.000E-02  1.297E+00
   1    8    6     2     5    1.4910E+01  2.3289E-01   1.4677E+01  0.000E+00  0.000E+00  0.000E+00  1.05324E+03  8.814E-01  1.200E+01  6.000E-02  1.294E+00
   1    3    5     3     1    2.0000E+00  2.8252E-01   1.7175E+00  0.000E+00  0.000E+00  0.000E+00  1.07555E+03  1.909E+00  9.636E+00  7.227E-02  1.955E+00
   1    3    6     3     2    1.7175E+00  2.4905E-01   1.4684E+00  0.000E+00  0.000E+00  0.000E+00  1.07264E+03  1.727E+00  8.909E+00  6.682E-02  1.864E+00
   1    3    7     3     3    1.4684E+00  1.9718E-01   1.2712E+00  0.000E+00  0.000E+00  0.000E+00  1.06987E+03  1.555E+00  8.218E+00  5.547E-02  1.777E+00
   1    4    8     3     4    1.2712E+00  2.2567E-01   1.0456E+00  0.000E+00  0.000E+00  0.000E+00  1.06682E+03  1.364E+00  7.455E+00  6.709E-02  1.682E+00
   1    5    8     3     5    1.0456E+00  1.5790E-01   8.8768E-01  0.000E+00  0.000E+00  0.000E+00  1.06362E+03  1.164E+00  6.655E+00  4.991E-02  1.582E+00
   1    6    8     3     6    8.8768E-01  5.5980E-02   8.3170E-01  0.000E+00  0.000E+00  0.000E+00  1.06158E+03  1.036E+00  6.145E+00  1.844E-02  1.518E+00
   1    5   10     4     1    1.0000E+01  9.0919E-02   9.9091E+00  0.000E+00  0.000E+00  0.000E+00  1.07836E+03  6.368E-01  1.000E+01  2.500E-02  1.212E+00
   1    5    9     4     2    9.9091E+00  1.8158E-01   9.7275E+00  0.000E+00  0.000E+00  0.000E+00  1.07154E+03  6.315E-01  1.000E+01  5.000E-02  1.211E+00
   1    6    8     4     3    9.7275E+00  1.2689E-01   9.6006E+00  0.000E+00  0.000E+00  0.000E+00  1.06381E+03  6.256E-01  1.000E+01  3.500E-02  1.209E+00
   1    6    8     5     1    1.0432E+01  2.2686E-01   1.0205E+01  0.000E+00  0.000E+00  0.000E+00  1.05868E+03  6.790E-01  1.542E+01  6.166E-02  1.226E+00
   1    7    7     5     2    1.0205E+01  2.7894E-01   9.9265E+00  0.000E+00  0.000E+00  0.000E+00  1.05417E+03  6.732E-01  1.519E+01  7.594E-02  1.224E+00
   1    8    7     5     3    9.9265E+00  1.9221E-01   9.7343E+00  0.000E+00  0.000E+00  0.000E+00  1.04992E+03  6.676E-01  1.497E+01  5.241E-02  1.223E+00
   1    8    6     5     4    9.7343E+00  1.3577E-01   9.5985E+00  0.000E+00  0.000E+00  0.000E+00  1.04691E+03  6.637E-01  1.482E+01  3.706E-02  1.221E+00
   1    9    6     6     1    2.4276E+01  2.5176E-01   2.4024E+01  0.000E+00  0.000E+00  0.000E+00  1.04392E+03  1.196E+00  1.200E+01  6.000E-02  1.399E+00
   1   10    7     6     2    2.4024E+01  2.5131E-01   2.3773E+01  0.000E+00  0.000E+00  0.000E+00  1.03937E+03  1.188E+00  1.200E+01  6.000E-02  1.396E+00
   1   11    7     6     3    2.3773E+01  2.5086E-01   2.3522E+01  0.000E+00  0.000E+00  0.000E+00  1.03482E+03  1.181E+00  1.200E+01  6.000E-02  1.394E+00
   1   12    7     6     4    2.3522E+01  2.5041E-01   2.3271E+01  0.000E+00  0.000E+00  0.000E+00  1.03026E+03  1.173E+00  1.200E+01  6.000E-02  1.391E+00
   1   13    7     6     5    2.3271E+01  1.2694E-02   2.3259E+01  0.000E+00  0.000E+00  0.000E+00  1.02708E+03  1.169E+00  1.200E+01  2.400E-02  1.763E-01
   1   14    9     7     1    1.5000E+02  1.3826E+00   1.4862E+02  0.000E+00  0.000E+00  0.000E+00  1.03987E+03  2.288E+00  5.529E+01  5.593E-01  8.240E-01
   1   13    8     7     2    1.4862E+02  1.9979E+00   1.4662E+02  0.000E+00  0.000E+00  0.000E+00  1.03478E+03  2.279E+00  5.525E+01  6.147E-01  1.083E+00
   1   13    7     7     3    1.4662E+02  1.7523E+00   1.4487E+02  0.000E+00  0.000E+00  0.000E+00  1.02969E+03  2.269E+00  5.521E+01  5.584E-01  1.046E+00
   1   13    6     8     1    1.6813E+02  1.1852E+00   1.6694E+02  0.000E+00  0.000E+00  0.000E+00  1.02481E+03  2.936E+00  4.257E+01  4.338E-01  9.107E-01
   1   13    5     8     2    1.6694E+02  4.2135E-01   1.6652E+02  0.000E+00  0.000E+00  0.000E+00  1.01856E+03  2.931E+00  4.250E+01  4.331E-01  3.243E-01
   1   13    4     8     3    1.6652E+02 -1.6044E+00   1.6812E+02  0.000E+00  0.000E+00  0.000E+00  1.01231E+03  2.935E+00  4.255E+01  4.336E+00 -1.233E-01
   1   13    3     8     4    1.6812E+02 -3.2483E+00   1.7137E+02  0.000E+00  0.000E+00  0.000E+00  1.00608E+03  2.951E+00  4.278E+01  4.360E+00 -2.484E-01
   1   13    2     8     5    1.7137E+02 -2.4774E+00   1.7385E+02  0.000E+00  0.000E+00  0.000E+00  9.99844E+02  2.969E+00  4.305E+01  4.387E+00 -1.882E-01
   1   13    1     8     6    1.7385E+02 -1.9560E+00   1.7581E+02  0.000E+00  0.000E+00  0.000E+00  9.94858E+02  2.983E+00  4.326E+01  2.645E+00 -2.465E-01





UNSATURATED ZONE PACKAGE VOLUMETRIC BUDGET FOR  TIME STEP    30 STRESS PERIOD   49
  ------------------------------------------------------------------------------



     CUMULATIVE VOLUMES      L**3       RATES FOR THIS TIME STEP      L**3/T
     ------------------                 ------------------------

           IN:                                      IN:
           ---                                      ---
        INFILTRATION =  2149283723.3440          INFILTRATION =           4.4075

          OUT:                                     OUT:
          ----                                     ----
              UZF ET =  2001118122.2291                UZF ET =           0.7250
        UZF RECHARGE =     1377622.8818          UZF RECHARGE =       0.0000E+00

            IN - OUT =   146787978.2331              IN - OUT =           3.6825

          STORAGE:                                 STORAGE:
          --------                                 --------
      STORAGE CHANGE =   146789600.3959        STORAGE CHANGE =           3.6825

 PERCENT DISCREPANCY IS DIFFERENCE BETWEEN IN-OUT MINUS CHANGE IN STORAGE
 DIVIDED BY THE AVERAGE OF IN AND OUT TIMES 100

 PERCENT DISCREPANCY =          -0.00     PERCENT DISCREPANCY =           0.00






1
  VOLUMETRIC BUDGET FOR ENTIRE MODEL AT END OF TIME STEP   30, STRESS PERIOD  49
  ------------------------------------------------------------------------------

     CUMULATIVE VOLUMES      L**3       RATES FOR THIS TIME STEP      L**3/T
     ------------------                 ------------------------

           IN:                                      IN:
           ---                                      ---
               AG WELLS  =  1592807680.0000                 AG WELLS  =           0.0000
      DIVERSION SEGMENTS =           0.0000        DIVERSION SEGMENTS =           0.0000
           GW IRRIGATION =           0.0000             GW IRRIGATION =           0.0000
           SW IRRIGATION =           0.0000             SW IRRIGATION =           0.0000
        SYSTEM LOSSES GW =           0.0000          SYSTEM LOSSES GW =           0.0000
        SYSTEM LOSSES SW =           0.0000          SYSTEM LOSSES SW =           0.0000

                TOTAL IN =  1592807680.0000                  TOTAL IN =           0.0000

          OUT:                                     OUT:
          ----                                     ----
               AG WELLS  =           0.0000                 AG WELLS  =           0.0000
      DIVERSION SEGMENTS =           0.0000        DIVERSION SEGMENTS =           0.0000
           GW IRRIGATION =  1592807680.0000             GW IRRIGATION =           0.0000
           SW IRRIGATION =           0.0000             SW IRRIGATION =           0.0000
        SYSTEM LOSSES GW =           0.0000          SYSTEM LOSSES GW =           0.0000
        SYSTEM LOSSES SW =           0.0000          SYSTEM LOSSES SW =           0.0000

               TOTAL OUT =  1592807680.0000                 TOTAL OUT =           0.0000

                IN - OUT =           0.0000                  IN - OUT =           0.0000

     PERCENT DISCREPANCY =           0.00         PERCENT DISCREPANCY =           0.00



1
  VOLUMETRIC BUDGET FOR ENTIRE MODEL AT END OF TIME STEP   30, STRESS PERIOD  49
  ------------------------------------------------------------------------------

     CUMULATIVE VOLUMES      L**3       RATES FOR THIS TIME STEP      L**3/T
     ------------------                 ------------------------

           IN:                                      IN:
           ---                                      ---
             STORAGE     =  2174323712.0000               STORAGE     =           7.0644
       CONSTANT HEAD     =           0.0000         CONSTANT HEAD     =           0.0000
     HEAD DEP BOUNDS     =    36181640.0000       HEAD DEP BOUNDS     =           0.2889
      STREAM LEAKAGE     =  1548843264.0000        STREAM LEAKAGE     =          12.4807
        UZF RECHARGE     =     1377623.2500          UZF RECHARGE     =           0.0000
               GW ET     =           0.0000                 GW ET     =           0.0000
     SURFACE LEAKAGE     =           0.0000       SURFACE LEAKAGE     =           0.0000
           AG WELLS      =           0.0000             AG WELLS      =           0.0000

                TOTAL IN =  3760726272.0000                  TOTAL IN =          19.8340

          OUT:                                     OUT:
          ----                                     ----
             STORAGE     =   840048896.0000               STORAGE     =          10.2592
       CONSTANT HEAD     =           0.0000         CONSTANT HEAD     =           0.0000
     HEAD DEP BOUNDS     =    36830128.0000       HEAD DEP BOUNDS     =           0.2887
      STREAM LEAKAGE     =  1273723392.0000        STREAM LEAKAGE     =           9.2861
        UZF RECHARGE     =           0.0000          UZF RECHARGE     =           0.0000
               GW ET     =    17319432.0000                 GW ET     =           0.0000
     SURFACE LEAKAGE     =           0.0000       SURFACE LEAKAGE     =           0.0000
           AG WELLS      =  1592807680.0000             AG WELLS      =           0.0000

               TOTAL OUT =  3760729600.0000                 TOTAL OUT =          19.8340

                IN - OUT =       -3328.0000                  IN - OUT =       1.5259E-05

     PERCENT DISCREPANCY =          -0.00         PERCENT DISCREPANCY =           0.00






         TIME SUMMARY AT END OF TIME STEP   30 IN STRESS PERIOD   49
                    SECONDS     MINUTES      HOURS       DAYS        YEARS
                    -----------------------------------------------------------
   TIME STEP LENGTH  87667.      1461.1      24.352      1.0147     2.77799E-03
 STRESS PERIOD TIME 2.63000E+06  43833.      730.56      30.440     8.33397E-02
         TOTAL TIME 1.26325E+08 2.10542E+06  35090.      1462.1      4.0030    
1


 Run end date and time (yyyy/mm/dd hh:mm:ss): 2019/07/08 17:42:35
 Elapsed run time:  7.754 Seconds

